function mpc = case300_SE
%CASE300_SE

%% MATPOWER Case Format : Version 2
mpc.version = '2';

%%-----  Power Flow Data  -----%%
%% system MVA base
mpc.baseMVA = 100;

%% bus data
%	bus_i	type	Pd	Qd	Gs	Bs	area	Vm	Va	baseKV	zone	Vmax	Vmin
mpc.bus = [
	1	1	90	49	0	0	1	1.02842015	5.96736574	115	1	1.06	0.94;
	2	1	56	15	0	0	1	1.03534039	7.7549745	115	1	1.06	0.94;
	3	1	20	0	0	0	1	0.997098674	6.65708109	230	1	1.06	0.94;
	4	1	0	0	0	0	1	1.0308118	4.72827003	345	1	1.06	0.94;
	5	1	353	130	0	0	1	1.0191091	4.70140239	115	1	1.06	0.94;
	6	1	120	41	0	0	1	1.03119612	7.00606218	115	1	1.06	0.94;
	7	1	0	0	0	0	1	0.993407714	6.20564604	230	1	1.06	0.94;
	8	2	63	14	0	0	1	1.0153	2.41527525	115	1	1.06	0.94;
	9	1	96	43	0	0	1	1.00338574	2.87085821	115	1	1.06	0.94;
	10	2	153	33	0	0	1	1.0205	1.36318128	230	1	1.06	0.94;
	11	1	83	21	0	0	1	1.00565721	2.48124373	115	1	1.06	0.94;
	12	1	0	0	0	0	1	0.997373202	5.23026693	230	1	1.06	0.94;
	13	1	58	10	0	0	1	0.997674375	-0.537103563	115	1	1.06	0.94;
	14	1	160	60	0	0	1	0.999169906	-4.79583792	115	1	1.06	0.94;
	15	1	126.7	23	0	0	1	1.03439126	-8.56699263	115	1	1.06	0.94;
	16	1	0	0	0	0	1	1.03158695	-2.62231908	345	1	1.06	0.94;
	17	1	561	220	0	0	1	1.06490618	-13.0847496	115	1	1.06	0.94;
	18	1	0	0	0	0	1	0.981923559	1.08870434	230	1	1.06	0.94;
	19	2	605	120	0	0	1	1.001	-2.4469348	115	1	1.06	0.94;
	20	1	77	1	0	0	1	0.975167954	1.63397476	230	1	1.06	0.94;
	21	1	81	23	0	0	1	0.996270178	-1.95994324	115	1	1.06	0.94;
	22	1	21	7	0	0	1	1.05009765	3.95145261	115	1	1.06	0.94;
	23	1	0	0	0	0	1	1.00565562	6.03302576	230	1	1.06	0.94;
	24	1	45	12	0	0	1	1.02335353	1.45276449	115	1	1.06	0.94;
	25	1	28	9	0	0	1	0.998577095	-1.72104002	115	1	1.06	0.94;
	26	1	69	13	0	0	1	0.975035262	-4.88256577	115	1	1.06	0.94;
	27	1	55	6	0	0	1	1.0245648	-12.0018741	115	1	1.06	0.94;
	28	1	0	0	0	0	1	1.04144101	-7.90090059	345	1	1.06	0.94;
	29	1	0	0	0	0	1	0.975687595	-25.6817335	115	1	1.06	0.94;
	30	1	0	0	0	0	1	1.00116986	-22.5188124	230	1	1.06	0.94;
	31	1	85	32	0	0	1	1.0201582	-11.21446	115	1	1.06	0.94;
	32	1	155	18	0	0	1	1.02031162	-12.5385775	115	1	1.06	0.94;
	33	1	0	0	0	0	1	1.05361061	-5.77304793	345	1	1.06	0.94;
	34	1	46	-21	0	0	1	1.02165472	-12.7608744	115	1	1.06	0.94;
	35	1	86	0	0	0	1	1.02928287	-10.4254025	115	1	1.06	0.94;
	36	1	0	0	0	0	1	1.04494412	-7.40650007	345	1	1.06	0.94;
	37	1	39	9	0	0	1	1.0007318	-16.7633605	115	1	1.06	0.94;
	38	1	195	29	0	0	1	1.00873503	-17.4310106	115	1	1.06	0.94;
	39	1	0	0	0	0	1	1.02164615	-14.6903429	230	1	1.06	0.94;
	40	1	0	0	0	0	1	1.03451483	-11.697007	345	1	1.06	0.94;
	41	1	58	11.8	0	0	1	0.977877377	-23.1630027	115	1	1.06	0.94;
	42	1	41	19	0	0	1	1.00195845	-16.1207191	115	1	1.06	0.94;
	43	1	92	26	0	0	1	1.04749941	-2.94453588	115	1	1.06	0.94;
	44	1	-5	5	0	0	1	1.02538774	-8.13465055	115	1	1.06	0.94;
	45	1	61	28	0	0	1	0.998003135	-11.8395	115	1	1.06	0.94;
	46	1	69	3	0	0	1	0.9960348	-17.5787614	115	1	1.06	0.94;
	47	1	10	1	0	0	1	1.00513492	-16.2223455	115	1	1.06	0.94;
	48	1	22	10	0	0	1	1.0151464	-12.1874588	115	1	1.06	0.94;
	49	1	98	20	0	0	1	1.03349014	-7.9659047	115	1	1.06	0.94;
	50	1	14	1	0	0	1	0.991822146	-5.9588855	115	1	1.06	0.94;
	51	1	218	106	0	0	1	0.978860103	-5.2524479	115	1	1.06	0.94;
	52	1	0	0	0	0	1	1.02471633	-9.51479968	230	1	1.06	0.94;
	53	1	227	110	0	0	1	0.990653649	-3.43318258	115	1	1.06	0.94;
	54	1	0	0	0	0	1	1.01603973	-1.06155602	230	1	1.06	0.94;
	55	2	70	30	0	0	1	0.9583	-17.5886179	115	1	1.06	0.94;
	56	1	0	0	0	0	1	0.94795568	-12.9355115	230	1	1.06	0.94;
	57	1	0	0	0	0	1	0.962697923	-26.4716652	115	1	1.06	0.94;
	58	1	56	20	0	0	1	0.951318457	-35.1237581	115	1	1.06	0.94;
	59	1	116	38	0	0	1	0.979390702	-29.8445659	115	1	1.06	0.94;
	60	1	57	19	0	0	1	0.969614244	-27.4412424	115	1	1.06	0.94;
	61	1	224	71	0	0	1	0.977610477	-25.7372863	115	1	1.06	0.94;
	62	1	0	0	0	0	1	0.996488299	-21.9430147	230	1	1.06	0.94;
	63	2	208	107	0	0	1	0.9632	-26.5029725	115	1	1.06	0.94;
	64	1	74	28	0	0	1	0.983787299	-24.9110077	115	1	1.06	0.94;
	65	1	0	0	0	0	1	0.990023387	-24.0346027	115	1	1.06	0.94;
	66	1	48	14	0	0	1	0.982012341	-25.0112784	115	1	1.06	0.94;
	67	1	28	7	0	0	1	0.987242422	-24.8171843	115	1	1.06	0.94;
	68	1	0	0	0	0	1	1.03412687	-18.7566941	345	1	1.06	0.94;
	69	2	37	13	0	0	1	1.025	-17.1477822	115	1	1.06	0.94;
	70	1	0	0	0	0	1	0.987112105	-17.7650624	230	1	1.06	0.94;
	71	1	0	0	0	0	1	0.99081794	-14.2479404	230	1	1.06	0.94;
	72	1	0	0	0	0	1	0.991953641	-7.79272937	230	1	1.06	0.94;
	73	1	0	0	0	0	1	1.01524801	-20.8668046	230	1	1.06	0.94;
	74	1	44.2	0	0	0	1	1.03172441	-11.1429144	115	1	1.06	0.94;
	75	1	66	0	0	0	1	1.02723076	-11.2348912	115	1	1.06	0.94;
	76	2	17.4	0	0	0	1	1.052	-9.4369864	115	1	1.06	0.94;
	77	2	15.8	0	0	0	1	1.052	-6.24389715	115	1	1.06	0.94;
	78	1	60.3	0	0	0	1	0.992945005	-9.44931558	115	1	1.06	0.94;
	79	1	39.9	0	0	0	1	1.01822439	-13.2870836	115	1	1.06	0.94;
	80	2	66.7	0	0	0	1	1	-14.6648617	115	1	1.06	0.94;
	81	1	83.5	0	0	0	1	0.989358457	-20.3752569	115	1	1.06	0.94;
	82	1	0	0	0	0	1	1.00598596	-14.5033283	115	1	1.06	0.94;
	83	1	77.8	0	0	0	1	1.00070765	-15.2925752	115	1	1.06	0.94;
	84	1	32	0	0	0	1	1.0287588	-12.118075	115	1	1.06	0.94;
	85	1	8.6	0	0	0	1	0.995736736	-17.4016288	115	1	1.06	0.94;
	86	1	49.6	0	0	0	1	1.02226693	-13.0017109	115	1	1.06	0.94;
	87	1	4.6	0	0	0	1	1.00946117	-16.0817834	115	1	1.06	0.94;
	88	2	112.1	0	0	0	1	0.99	-20.363463	115	1	1.06	0.94;
	89	1	30.7	0	0	0	1	0.975244728	-26.2916204	115	1	1.06	0.94;
	90	1	63	0	0	0	1	0.973212905	-24.9315806	115	1	1.06	0.94;
	91	1	19.6	0	0	0	1	0.974472916	-29.2739119	115	1	1.06	0.94;
	92	1	26.2	0	0	0	1	0.970155245	-25.4471109	115	1	1.06	0.94;
	93	1	18.2	0	0	0	1	0.976812033	-29.2091983	115	1	1.06	0.94;
	94	1	0	0	0	0	1	0.960282046	-13.548487	115	2	1.06	0.94;
	95	1	0	0	0	0	1	1.02486076	-12.666916	115	2	1.06	0.94;
	96	1	0	0	0	325	1	0.934828969	-4.69918419	115	2	1.06	0.94;
	97	1	14.1	650	0	0	1	0.929853059	-4.10157331	115	2	1.06	0.94;
	98	2	0	0	0	0	1	1.0435	5.18733838	115	2	1.06	0.94;
	99	1	777	215	0	55	1	0.958437324	-8.74920988	115	2	1.06	0.94;
	100	1	535	55	0	0	1	0.987111098	-12.614836	115	2	1.06	0.94;
	101	1	229.1	11.8	0	0	1	0.972796082	-14.3430693	115	2	1.06	0.94;
	102	1	78	1.4	0	0	1	1.00058793	-17.613437	115	2	1.06	0.94;
	103	2	276.4	59.3	0	0	1	1.0233	-13.4644599	115	2	1.06	0.94;
	104	2	514.8	82.7	0	0	1	1.0103	-18.4065071	115	2	1.06	0.94;
	105	1	57.9	5.1	0	0	1	0.997795453	-12.8426799	115	2	1.06	0.94;
	106	1	380.8	37	0	0	1	1.00012891	-10.5018036	230	2	1.06	0.94;
	107	1	0	0	0	0	1	1.00240611	-4.75589409	230	2	1.06	0.94;
	108	1	0	0	0	0	1	1.00282473	-4.37713752	230	2	1.06	0.94;
	109	1	0	0	0	0	1	1.01913583	5.57782548	230	2	1.06	0.94;
	110	1	0	0	0	0	1	0.986142347	6.07365107	230	2	1.06	0.94;
	111	1	0	0	0	0	1	1.00455115	3.06381636	230	2	1.06	0.94;
	112	1	0	0	0	0	1	1.00199833	-5.43899169	230	2	1.06	0.94;
	113	1	0	0	0	0	1	1.02207569	-8.02223598	230	2	1.06	0.94;
	114	1	169.2	41.6	0	0	1	1.01933725	-6.73394912	230	2	1.06	0.94;
	115	1	55.2	18.2	0	0	1	1.04758617	1.56301009	230	2	1.06	0.94;
	116	1	273.6	99.8	0	0	1	1.04708812	-1.43150739	230	2	1.06	0.94;
	117	2	1019.2	135.2	0	0	1	1.055	-6.33076932	230	2	1.06	0.94;
	118	1	595	83.3	0	0	1	1.01170852	-3.54473356	115	2	1.06	0.94;
	119	1	387.7	114.7	0	0	1	1.04299144	-3.41207716	230	2	1.06	0.94;
	120	2	145	58	0	0	1	1.051	0.0736474264	230	2	1.06	0.94;
	121	1	56.5	24.5	0	0	1	1.01550963	-2.74185275	230	2	1.06	0.94;
	122	2	89.5	35.5	0	0	1	1.0435	4.06183608	230	2	1.06	0.94;
	123	1	0	0	0	0	1	1.01610662	-0.660898527	230	2	1.06	0.94;
	124	1	24	14	0	0	1	1.00810603	-0.129941641	230	2	1.06	0.94;
	125	2	0	0	0	0	1	1.0528	4.34695237	230	2	1.06	0.94;
	126	2	0	0	0	0	1	1.0528	8.38900667	230	2	1.06	0.94;
	127	1	63	25	0	0	1	1.05771858	0.306248595	230	2	1.06	0.94;
	128	2	0	0	0	0	1	1.0735	5.25743035	230	2	1.06	0.94;
	129	1	0	0	0	0	1	0.986926461	6.3552045	230	2	1.06	0.94;
	130	1	0	0	0	0	1	1.00483265	4.15036106	230	2	1.06	0.94;
	131	2	17	9	0	0	1	1.0535	9.26393226	230	2	1.06	0.94;
	132	2	0	0	0	0	1	1.0435	10.4836482	230	2	1.06	0.94;
	133	1	70	5	0	34.5	1	0.966416833	-1.77572715	115	2	1.06	0.94;
	134	1	200	50	0	0	1	1.01772432	6.77435779	230	2	1.06	0.94;
	135	2	75	50	0	0	1	0.963	5.16879619	115	2	1.06	0.94;
	136	1	123.5	-24.3	0	0	1	0.984472529	-11.905024	230	2	1.06	0.94;
	137	1	0	0	0	0	1	0.998708597	-11.3807056	230	2	1.06	0.94;
	138	1	33	16.5	0	0	1	0.986644138	-9.79831428	230	2	1.06	0.94;
	139	1	0	0	0	0	1	0.999801002	-12.5301747	230	2	1.06	0.94;
	140	1	35	15	0	0	1	1.03608206	8.86704441	230	2	1.06	0.94;
	141	1	85	24	0	0	1	0.991820234	18.5239014	230	2	1.06	0.94;
	142	1	0	0.4	0	0	1	1.04101055	2.92925257	230	2	1.06	0.94;
	143	1	0	0	0	-212	1	0.983913921	9.68446246	230	2	1.06	0.94;
	144	1	0	0	0	0	1	1.0002115	26.3319726	230	2	1.06	0.94;
	145	1	0	0	0	-103	1	0.997254427	30.2437325	230	2	1.06	0.94;
	146	1	299.9	95.7	0	0	1	0.971492182	-6.88525849	230	2	1.06	0.94;
	147	1	0	0	0	0	1	1.0024311	-4.77892257	230	2	1.06	0.94;
	148	1	0	0	0	0	1	0.987864475	-6.6565185	230	2	1.06	0.94;
	149	2	481.8	205	0	0	1	0.929	0.107696722	115	2	1.06	0.94;
	150	2	763.6	291.1	0	0	1	0.9829	-9.91390028	115	2	1.06	0.94;
	151	1	26.5	0	0	0	1	1.02446611	-6.19958187	115	2	1.06	0.94;
	152	1	163.5	43	0	53	1	0.983654255	-12.7287834	115	2	1.06	0.94;
	153	1	0	0	0	0	1	1.06221362	-2.6666747	115	2	1.06	0.94;
	154	1	176	83	0	0	1	0.973080894	-7.18031412	115	2	1.06	0.94;
	155	2	5	4	0	0	1	1.0522	4.69124598	115	2	1.06	0.94;
	156	2	28	12	0	0	1	1.0077	0.645671077	115	2	1.06	0.94;
	157	1	427.4	173.6	0	0	1	0.93979559	-6.53683379	115	2	1.06	0.94;
	158	1	74	29	0	45	1	0.969910277	-9.33760144	115	2	1.06	0.94;
	159	1	69.5	49.3	0	0	1	0.979330186	-3.06506781	115	2	1.06	0.94;
	160	1	73.4	0	0	0	1	1.05182361	-1.30323336	230	2	1.06	0.94;
	161	1	240.7	89	0	0	1	1.04462767	-4.16512621	230	2	1.06	0.94;
	162	1	40	4	0	0	1	0.971644873	7.14506048	115	2	1.06	0.94;
	163	1	136.8	16.6	0	0	1	1.03858929	-6.82449773	230	2	1.06	0.94;
	164	2	0	0	0	0	1	1.0522	-4.3101142	230	2	1.06	0.94;
	165	2	59.8	24.3	0	0	1	1.065	2.19433228	230	2	1.06	0.94;
	166	2	59.8	24.3	0	0	1	1.065	1.41898758	230	2	1.06	0.94;
	167	1	182.6	43.6	0	0	1	1.0532818	-0.701184856	230	2	1.06	0.94;
	168	1	7	2	0	0	1	1.00275744	-26.013343	66	3	1.06	0.94;
	169	2	0	0	0	-150	1	1.0551	-20.4166352	345	3	1.06	0.94;
	170	2	489	53	0	0	1	1.0435	12.4516603	230	3	1.06	0.94;
	171	1	800	72	0	0	1	0.937458227	-10.9775664	230	3	1.06	0.94;
	172	1	0	0	0	0	1	0.998235718	-27.4703395	66	3	1.06	0.94;
	173	1	0	0	0	0	1	1.04898415	-19.0448444	345	3	1.06	0.94;
	174	1	0	0	0	0	1	1.03590307	-20.5808399	345	3	1.06	0.94;
	175	1	10	3	0	0	1	0.973993322	-24.2286316	115	3	1.06	0.94;
	176	1	43	14	0	0	1	0.992473322	-23.0617145	115	3	1.06	0.94;
	177	2	64	21	0	0	1	1.015	-20.0943342	115	3	1.06	0.94;
	178	1	35	12	0	0	1	0.954313094	-25.446223	115	3	1.06	0.94;
	179	1	27	12	0	0	1	0.956173522	-25.3670613	115	3	1.06	0.94;
	180	1	41	14	0	0	1	0.974031726	-29.2331195	66	1	1.06	0.94;
	181	1	38	13	0	0	1	0.990838643	-24.9694075	66	3	1.06	0.94;
	182	1	42	14	0	0	1	1.00335924	-21.9255337	115	3	1.06	0.94;
	183	1	72	24	0	0	1	0.96670946	-29.5486707	66	3	1.06	0.94;
	184	1	0	-5	0	0	1	0.985553688	-28.5157734	66	3	1.06	0.94;
	185	1	12	2	0	0	1	1.00376814	-28.4732225	66	3	1.06	0.94;
	186	1	-21	-14.2	0	0	1	1.01855537	-28.2950786	66	1	1.06	0.94;
	187	1	7	2	0	0	1	0.9994401	-26.9980162	66	3	1.06	0.94;
	188	1	38	13	0	0	1	1.00477433	-25.6141489	66	3	1.06	0.94;
	189	1	0	0	0	0	1	0.980462408	-23.6028429	115	3	1.06	0.94;
	190	1	96	7	0	0	1	1.00182048	-22.9714934	115	3	1.06	0.94;
	191	1	0	0	0	0	1	1.01326191	-22.2030414	138	3	1.06	0.94;
	192	2	0	0	0	0	1	1.01	-11.3792289	16.5	3	1.06	0.94;
	193	1	22	16	0	0	1	0.991862746	-17.2379632	138	3	1.06	0.94;
	194	1	47	26	0	0	1	0.986631743	-19.9509843	138	3	1.06	0.94;
	195	1	176	105	0	0	1	0.975109765	-22.2713805	138	3	1.06	0.94;
	196	1	100	75	0	0	1	1.02152467	-21.9867633	138	3	1.06	0.94;
	197	1	131	96	0	0	1	1.00754666	-22.4217588	138	3	1.06	0.94;
	198	1	0	0	0	0	1	1.0554202	-20.9473806	345	3	1.06	0.94;
	199	2	285	100	0	0	1	1.008	-21.5197948	138	3	1.06	0.94;
	200	2	171	70	0	0	1	1	-22.2851415	138	3	1.06	0.94;
	201	2	328	188	0	0	1	1.05	-22.9638791	20	3	1.06	0.94;
	202	1	428	232	0	0	1	0.9965511	-22.4955333	138	3	1.06	0.94;
	203	1	173	99	0	0	1	1.0002539	-21.3497469	230	3	1.06	0.94;
	204	1	410	40	0	0	1	0.945275772	-11.1415511	230	3	1.06	0.94;
	205	1	0	0	0	0	1	1.01800537	-21.4054855	230	3	1.06	0.94;
	206	2	538	369	0	0	1	1	-27.0161441	27	3	1.06	0.94;
	207	1	223	148	0	0	1	1.0423565	-20.7369346	138	3	1.06	0.94;
	208	1	96	46	0	0	1	1.04955189	-19.7413532	138	3	1.06	0.94;
	209	2	0	0	0	0	1	1.04	-13.6199129	20	3	1.06	0.94;
	210	1	159	107	0	-300	1	1.05354076	-21.0202823	345	3	1.06	0.94;
	211	1	448	143	0	0	1	1.04146647	-22.9942518	138	3	1.06	0.94;
	212	2	404	212	0	0	1	1	-25.695865	66	3	1.06	0.94;
	213	1	572	244	0	0	1	1.03870579	-20.690596	138	3	1.06	0.94;
	214	1	269	157	0	0	1	1.00951466	-20.8231241	138	3	1.06	0.94;
	215	2	0	0	0	0	1	1.0165	-15.1951995	20	3	1.06	0.94;
	216	1	0	0	0	0	1	1.05585003	-20.8975303	345	3	1.06	0.94;
	217	2	255	149	0	-150	1	1.01	-20.7353421	138	3	1.06	0.94;
	218	2	0	0	0	0	1	1	-15.6565287	138	3	1.06	0.94;
	219	1	0	0	0	-140	1	1.02377627	-19.9338929	230	3	1.06	0.94;
	220	2	0	0	0	0	1	1.05	-16.3036746	20	3	1.06	0.94;
	221	2	0	0	0	0	1	0.993	-17.2263146	138	3	1.06	0.94;
	222	2	8	3	0	0	1	1.01	-18.9492468	66	3	1.06	0.94;
	223	1	0	0	0	0	1	0.992177878	-19.8878565	66	3	1.06	0.94;
	224	1	61	30	0	0	1	0.971139519	-20.5772534	66	3	1.06	0.94;
	225	1	77	33	0	0	1	0.965190607	-21.4161269	66	3	1.06	0.94;
	226	1	61	30	0	0	1	0.969095317	-21.3304148	66	3	1.06	0.94;
	227	1	29	14	0	45.6	1	0.976999432	-24.8097808	66	3	1.06	0.94;
	228	1	29	14	0	0	1	0.976226831	-25.2333464	66	3	1.06	0.94;
	229	1	-23	-17	0	0	1	1.02053238	-23.3789504	66	3	1.06	0.94;
	230	1	-33.1	-29.4	0	0	1	1.02512536	-19.8610826	230	3	1.06	0.94;
	231	1	115.8	-24	0	0	1	1.01520908	1.48773593	230	1	1.06	0.94;
	232	1	2.4	-12.6	0	0	1	1.01458959	-2.22141289	115	1	1.06	0.94;
	233	1	2.4	-3.9	0	0	1	1.00043285	-17.6904928	115	1	1.06	0.94;
	234	1	-14.9	26.5	0	0	1	0.980889657	-13.7482189	230	1	1.06	0.94;
	235	1	24.7	-1.2	0	0	1	0.974944922	-23.5218299	115	1	1.06	0.94;
	236	1	145.3	-34.9	0	0	1	0.942872891	-34.2770129	115	1	1.06	0.94;
	237	1	28.1	-20.5	0	0	1	0.972386548	-37.5425486	115	1	1.06	0.94;
	238	1	14	2.5	0	0	1	0.960470075	-29.0644448	115	1	1.06	0.94;
	239	1	-11.1	-1.4	0	0	1	1.00092068	-23.3303548	115	1	1.06	0.94;
	240	1	50.5	17.4	0	0	1	0.977728007	-27.9441715	230	1	1.06	0.94;
	241	1	29.6	0.6	0	0	1	0.958325466	-28.7595962	115	1	1.06	0.94;
	242	1	-113.7	76.7	0	0	1	1.03102834	-16.8327877	345	3	1.06	0.94;
	243	1	100.31	29.17	0	0	1	1.0128756	3.92483174	86	2	1.06	0.94;
	244	1	-100	34.17	0	0	1	1.02443808	-7.50305963	86	2	1.06	0.94;
	245	1	0	0	0	0	1	1.01219654	-15.1563935	115	2	1.06	0.94;
	246	1	0	0	0	0	1	0.969484874	-24.7009535	115	3	1.06	0.94;
	247	2	0	0	0	0	1	1.0507	10.809195	13.8	1	1.06	0.94;
	248	2	0	0	0	0	1	1.0507	12.5019273	13.8	1	1.06	0.94;
	249	2	0	0	0	0	1	1.0323	13.7744925	13.8	1	1.06	0.94;
	250	2	0	0	0	0	1	1.0145	5.00912492	13.8	1	1.06	0.94;
	251	2	0	0	0	0	1	1.0507	11.5890739	13.8	1	1.06	0.94;
	252	2	0	0	0	0	1	1.0507	-10.450931	13.8	1	1.06	0.94;
	253	2	0	0	0	0	1	1.0507	6.16160127	13.8	1	1.06	0.94;
	254	2	0	0	0	0	1	1.029	12.6079881	13.8	1	1.06	0.94;
	255	2	0	0	0	0	1	1.05	2.14619768	20	1	1.06	0.94;
	256	2	0	0	0	0	1	1.0145	-13.8809007	13.8	1	1.06	0.94;
	257	3	0	0	0	0	1	1.0507	0	13.8	1	1.06	0.94;
	258	2	0	0	0	0	1	0.9967	-7.47558456	13.8	1	1.06	0.94;
	259	2	0	0	0	0	1	1.0212	-3.41098449	13.8	1	1.06	0.94;
	260	2	0	0	0	0	1	1.0145	2.00228993	13.8	1	1.06	0.94;
	261	2	0	0	0	0	1	1.0017	5.8305443	13.8	1	1.06	0.94;
	262	2	0	0	0	0	1	0.9893	-25.3152638	13.8	1	1.06	0.94;
	263	2	0	0	0	0	1	1.0507	19.0437823	13.8	2	1.06	0.94;
	264	2	0	0	0	0	1	1.0507	2.76894238	13.8	2	1.06	0.94;
	265	2	0	0	0	0	1	1.0145	35.0723708	13.8	2	1.06	0.94;
	266	1	0	0	0	0	1	1.01177411	-11.2346676	115	9	1.06	0.94;
	267	2	4.2	0	0	0	1	0.9945	-18.8437342	6.6	9	1.06	0.94;
	268	1	2.71	0.94	0.14	2.4	1	0.983335363	-19.6731021	6.6	9	1.06	0.94;
	269	1	0.86	0.28	0	0	1	0.976825458	-19.8102756	6.6	9	1.06	0.94;
	270	1	0	0	0	0	1	1.01171089	-11.308078	115	9	1.06	0.94;
	271	1	0	0	0	0	1	1.00292395	-17.4121903	6.6	9	1.06	0.94;
	272	1	0	0	0	0	1	0.991386582	-18.6732206	6.6	9	1.06	0.94;
	273	1	0	0	0	0	1	1.00228014	-17.2529213	6.6	9	1.06	0.94;
	274	1	4.75	1.56	0	0	1	0.988721543	-19.0643842	6.6	9	1.06	0.94;
	275	1	1.53	0.53	0.08	0	1	0.964884438	-21.6368284	0.6	9	1.06	0.94;
	276	1	0	0	0	0	1	0.974703556	-19.3735497	6.6	9	1.06	0.94;
	277	1	1.35	0.47	0.07	0	1	0.970503942	-21.4097345	0.6	9	1.06	0.94;
	278	1	0.45	0.16	0.02	0	1	0.964756195	-20.43472	0.6	9	1.06	0.94;
	279	1	0.45	0.16	0.02	0	1	0.965606087	-20.3454589	0.6	9	1.06	0.94;
	280	1	1.84	0.64	0.1	0	1	0.931741731	-25.016104	0.6	9	1.06	0.94;
	281	1	1.39	0.48	0.07	0	1	0.944074473	-23.827209	0.6	9	1.06	0.94;
	282	1	1.89	0.65	0.1	0	1	0.928799262	-25.3313721	0.6	9	1.06	0.94;
	283	1	1.55	0.54	0.08	1.72	1	0.997240121	-21.0867833	0.6	9	1.06	0.94;
	284	1	1.66	0.58	0.09	0	1	0.950422289	-23.1721856	0.6	9	1.06	0.94;
	285	1	3.03	1	0	0	1	0.959699137	-22.6582987	2.3	9	1.06	0.94;
	286	1	1.86	0.64	0.1	0	1	0.957027004	-22.5794419	0.6	9	1.06	0.94;
	287	1	2.58	0.89	0.14	0	1	0.939159717	-24.4110328	0.6	9	1.06	0.94;
	288	1	1.01	0.35	0.05	0	1	0.963554602	-21.3118492	0.6	9	1.06	0.94;
	289	1	0.81	0.28	0.04	0	1	0.950266809	-22.4763921	0.6	9	1.06	0.94;
	290	1	1.6	0.52	0	0	1	0.964683365	-21.414183	2.3	9	1.06	0.94;
	291	1	0	0	0	0	1	0.979007418	-19.7701766	6.6	9	1.06	0.94;
	292	2	35.81	0	0	0	1	1	-19.3814153	13.8	9	1.06	0.94;
	293	1	30	23	0	0	1	0.978626533	-17.232942	13.8	9	1.06	0.94;
	294	2	26.48	0	0	0	1	1	-17.6684419	13.8	9	1.06	0.94;
	295	2	0	0	0	0	1	1	-6.8121637	13.8	9	1.06	0.94;
	296	2	0	0	0	0	1	1	-7.52317685	13.8	9	1.06	0.94;
	297	1	1.02	0.35	0.05	0	1	0.97543119	-20.4586048	0.6	9	1.06	0.94;
	298	1	1.02	0.35	0.05	0	1	0.980460243	-19.9048243	0.6	9	1.06	0.94;
	299	1	3.8	1.25	0	0	1	0.979887689	-19.2770953	6.6	9	1.06	0.94;
	300	1	1.19	0.41	0.1	0	1	1.04051734	-18.1822561	2.3	9	1.06	0.94;
];

%%  PMU voltage data (confidence intervals around measurements)
%	bus_i	VR_MAX	VR_MIN	VI_MAX	VI_MIN
mpc.Vpmu = [
	3	0.990376	0.990376	0.11559	0.11559;
	7	0.988204	0.986844	0.107455	0.107309;
	12	0.993221	0.993221	0.0909192	0.0909192;
	16	1.03051	1.03051	-0.0471973	-0.0471973;
	21	0.996382	0.995002	-0.0340472	-0.0340986;
	26	0.971497	0.971497	-0.0829889	-0.0829889;
	27	1.00217	1.00217	-0.213052	-0.213052;
	31	1.00068	1.00068	-0.198402	-0.198402;
	34	0.99642	0.99642	-0.225666	-0.225666;
	36	1.03623	1.03623	-0.134702	-0.134702;
	43	1.04612	1.04612	-0.0538092	-0.0538092;
	48	0.992267	0.992267	-0.214308	-0.214308;
	58	0.778094	0.778094	-0.547336	-0.547336;
	59	0.849503	0.849503	-0.487393	-0.487393;
	60	0.860517	0.860517	-0.446836	-0.446836;
	65	0.904188	0.904188	-0.403225	-0.403225;
	66	0.889924	0.889924	-0.415192	-0.415192;
	70	0.940042	0.940042	-0.301182	-0.301182;
	72	0.982793	0.982793	-0.134499	-0.134499;
	78	0.980203	0.978691	-0.162907	-0.16313;
	83	0.965274	0.965274	-0.263935	-0.263935;
	86	0.99673	0.995263	-0.229816	-0.230128;
	88	0.928129	0.928129	-0.344495	-0.344495;
	93	0.852604	0.852604	-0.476684	-0.476684;
	101	0.943143	0.941727	-0.240825	-0.241162;
	103	0.995796	0.994439	-0.238111	-0.238421;
	104	0.958613	0.958613	-0.319009	-0.319009;
	109	1.01431	1.01431	0.0990577	0.0990577;
	114	1.01231	1.01231	-0.119527	-0.119527;
	115	1.0472	1.0472	0.0285743	0.0285743;
	119	1.04114	1.04114	-0.0620755	-0.0620755;
	122	1.04088	1.04088	0.0739143	0.0739143;
	130	1.00294	1.00156	0.0727741	0.0726669;
	132	1.02608	1.02608	0.18987	0.18987;
	133	0.965953	0.965953	-0.0299467	-0.0299467;
	136	0.963896	0.962663	-0.202958	-0.203241;
	143	0.970641	0.969217	0.16563	0.165389;
	144	0.897056	0.895723	0.444016	0.443387;
	148	0.981984	0.980556	-0.114428	-0.114589;
	150	0.968223	0.968223	-0.169224	-0.169224;
	151	1.01929	1.01777	-0.110547	-0.110719;
	152	0.95948	0.95948	-0.216735	-0.216735;
	153	1.06174	1.06036	-0.0493891	-0.0494558;
	160	1.05231	1.05088	-0.0239057	-0.0239393;
	164	1.04922	1.04922	-0.0790778	-0.0790778;
	165	1.06422	1.06422	0.0407777	0.0407777;
	167	1.0532	1.0532	-0.0128897	-0.0128897;
	169	0.988819	0.988819	-0.368065	-0.368065;
	182	0.930786	0.930786	-0.374656	-0.374656;
	186	0.896856	0.896856	-0.482808	-0.482808;
	194	0.927419	0.927419	-0.336655	-0.336655;
	196	0.947861	0.946547	-0.382203	-0.382685;
	201	0.967469	0.966027	-0.409344	-0.409931;
	202	0.920723	0.920723	-0.381292	-0.381292;
	203	0.932262	0.930926	-0.363875	-0.364385;
	207	0.974828	0.974828	-0.369075	-0.369075;
	208	0.988646	0.987226	-0.354255	-0.354743;
	209	1.01075	1.01075	-0.244899	-0.244899;
	211	0.959479	0.958002	-0.406531	-0.407091;
	215	0.980962	0.980962	-0.266433	-0.266433;
	217	0.945238	0.943898	-0.35735	-0.357853;
	219	0.962438	0.962438	-0.349042	-0.349042;
	221	0.949151	0.947869	-0.293889	-0.29429;
	223	0.933005	0.933005	-0.337519	-0.337519;
	228	0.883074	0.883074	-0.416171	-0.416171;
	232	1.01383	1.01383	-0.0393268	-0.0393268;
	234	0.953453	0.952107	-0.232971	-0.233259;
	235	0.893935	0.893935	-0.389099	-0.389099;
	237	0.771567	0.770437	-0.592057	-0.592903;
	241	0.840738	0.839512	-0.460782	-0.461404;
	244	1.01567	1.01567	-0.13377	-0.13377;
	248	1.02579	1.02579	0.227448	0.227448;
	251	1.02928	1.02928	0.211076	0.211076;
	252	1.03327	1.03327	-0.19059	-0.19059;
	254	1.00419	1.00419	0.224609	0.224609;
	267	0.941911	0.940486	-0.321008	-0.321416;
	268	0.926525	0.92537	-0.330785	-0.331274;
	270	0.992071	0.992071	-0.198381	-0.198381;
	272	0.9392	0.9392	-0.317412	-0.317412;
	274	0.934492	0.934492	-0.322947	-0.322947;
	275	0.896898	0.896898	-0.355774	-0.355774;
	276	0.919512	0.919512	-0.323334	-0.323334;
	277	0.903533	0.903533	-0.354268	-0.354268;
	280	0.844865	0.843734	-0.39377	-0.394322;
	287	0.855203	0.855203	-0.388136	-0.388136;
	290	0.898678	0.89754	-0.351988	-0.352457;
	291	0.921302	0.921302	-0.331147	-0.331147;
	292	0.944071	0.942603	-0.331616	-0.332082;
	299	0.925563	0.924338	-0.323288	-0.323701;
	300	0.988563	0.988563	-0.324684	-0.324684;
];

%% PMU current injection data (confidence intervals around measurements)
%	bus_i	IR_MAX	IR_MIN	II_MAX	II_MIN
mpc.Ipmu = [
	3	-0.19923	-0.19923	-0.0232528	-0.0232528;
	7	0	0	0	0;
	12	     0	0	     0	0;
	16	     0	0	     0	0;
	21	-0.804023	-0.805172	0.258698	0.258335;
	26	-0.693751	-0.693751	0.193077	0.193077;
	27	-0.512901	-0.512901	0.168908	0.168908;
	31	-0.756291	-0.756291	0.469731	0.469731;
	34	-0.484531	-0.484531	-0.10102	-0.10102;
	36	     0	0	     0	0;
	43	-0.864372	-0.864372	0.292999	0.292999;
	48	-0.191037	-0.191037	0.142039	0.142039;
	58	-0.360512	-0.360512	0.510634	0.510634;
	59	-0.834246	-0.834246	0.92596	0.92596;
	60	-0.431415	-0.431415	0.444816	0.444816;
	65	     0	0	     0	0;
	66	-0.38268	-0.38268	0.335855	0.335855;
	70	     0	0	     0	0;
	72	     0	0	     0	0;
	78	-0.598651	-0.599434	0.0997659	0.0996382;
	83	-0.749922	-0.749922	0.205051	0.205051;
	86	-0.472424	-0.473052	0.109241	0.10909;
	88	-0.0261502	-0.0261502	-0.212691	-0.212691;
	93	-0.162629	-0.162629	0.0909243	0.0909243;
	101	-2.25007	-2.25336	0.70136	0.700386;
	103	-0.483577	-0.484312	-0.493208	-0.49388;
	104	-5.20092	-5.20092	0.508846	0.508846;
	109	     0	0	     0	0;
	114	-1.6006	-1.6006	0.599932	0.599932;
	115	-0.531468	-0.531468	0.159296	0.159296;
	119	-3.64515	-3.64515	1.31901	1.31901;
	122	5.8575	5.8575	-0.432176	-0.432176;
	130	0	0	0	0;
	132	1.99384	1.99384	0.601276	0.601276;
	133	-0.722374	-0.722374	0.0741576	0.0741576;
	136	-1.27752	-1.27918	0.0172733	0.0172499;
	143	0	0	0	0;
	144	0	0	0	0;
	148 0	0	0	0;
	150	-7.40584	-7.40584	2.75079	2.75079;
	151	-0.256959	-0.257358	0.0279514	0.0279169;
	152	-1.525	-1.525	0.792638	0.792638;
	153	0	0	0	0;
	160	-0.697212	-0.698085	0.0158821	0.0158609;
	164	1.87165	1.87165	-0.458073	-0.458073;
	165	10.7748	10.7748	-1.58828	-1.58828;
	167	-1.72843	-1.72843	0.435129	0.435129;
	169	4.44036	4.44036	-0.976147	-0.976147;
	182	-0.336216	-0.336216	0.285742	0.285742;
	186	0.115457	0.115457	-0.220485	-0.220485;
	194	-0.357861	-0.357861	0.410252	0.410252;
	196	-0.632392	-0.633314	1.04806	1.04654;
	201	-0.584707	-0.585473	0.523588	0.522863;
	202	-3.07729	-3.07729	3.79413	3.79413;
	203	-1.24975	-1.2513	1.5525	1.55043;
	207	-1.49804	-1.49804	2.08538	2.08538;
	208	-0.712361	-0.713404	0.721994	0.721002;
	209	3.12772	3.12772	-1.17862	-1.17862;
	211	-3.42074	-3.4259	2.94669	2.9423;
	215	4.92208	4.92208	-4.39744	-4.39744;
	217	-0.0990912	-0.0992271	-0.121988	-0.122174;
	219	     0	0	     0	0;
	221	1.48188	1.4797	-1.00412	-1.00557;
	223	     0	0	     0	0;
	228	-0.20758	-0.20758	0.256364	0.256364;
	232	-0.0284508	-0.0284508	-0.123178	-0.123178;
	234	0.211906	0.211621	0.226497	0.226153;
	235	-0.237209	-0.237209	0.089825	0.089825;
	237	-0.357329	-0.357875	0.00893548	0.00892287;
	241	-0.267549	-0.267971	0.154203	0.153982;
	244	1.01134	1.01134	0.203229	0.203229;
	248	5.98126	5.98126	0.415483	0.415483;
	251	3.85119	3.85119	-1.15575	-1.15575;
	252	2.48779	2.48779	-3.8273	-3.8273;
	254	4.11465	4.11465	-0.141912	-0.141912;
	267	-0.0464399	-0.0465133	-0.00542443	-0.00543187;
	268	-0.022717	-0.0227504	0.0182938	0.018268;
	270	     0	0	     0	0;
	272	     0	0	     0	0;
	274	-0.0402533	-0.0402533	0.0306045	0.0306045;
	275	-0.0127142	-0.0127142	0.0109526	0.0109526;
	276	     0	0	     0	0;
	277	-0.0111826	-0.0111826	0.0095864	0.0095864;
	280	-0.0149815	-0.0150017	0.0145845	0.0145661;
	287	-0.0210991	-0.0210991	0.0199828	0.0199828;
	290	-0.0134624	-0.0134809	0.0110809	0.0110671;
	291	     0	0	     0	0;
	292	-0.377984	-0.378532	0.0037769	0.00377149;
	299	-0.0323717	-0.0324202	0.0248601	0.0248277;
	300	-0.00963602	-0.00963602	0.00731229	0.00731229;
];

%% RTU injection data (confidence intervals around measurements)
%	bus_i	P_MIN	P_MAX	Q_MIN	Q_MAX	V_MIN	V_MAX
mpc.RTU = [
	1	-0.935448	-0.87140899	-0.507664	-0.473989525	1.02432209	1.0316916;
	2	-0.582353	-0.539789411	-0.155775	-0.144901143	1.03205991	1.03944762;
	5	 -3.66853	-3.39073862	 -1.34755	-1.2596398	1.01557911	1.02311607;
	6	 -1.24523	-1.16394632	-0.426028	-0.395345151	1.02714371	1.03450587;
	8	-0.650843	-0.61104154	-0.043086	-0.0400187164	1.01128297	1.01882012;
	9	-0.993093	-0.922832254	-0.442908	-0.416040468	0.999969219	1.00683547;
	10	  -1.5849	-1.47601159	-0.134295	-0.125691772	1.01686035	1.02358061;
	11	-0.860346	-0.801488955	-0.218051	-0.20207917	1.00226786	1.00920647;
	13	-0.600274	-0.561620675	-0.103146	-0.0962817019	0.99461812	1.00124834;
	14	 -1.65718	-1.5471894	-0.620129	-0.580817563	0.995555681	1.00287944;
	15	 -1.31744	-1.21852692	-0.238631	-0.221378897	1.03108757	1.03756978;
	17	 -5.82097	-5.43695445	 -2.27264	-2.12483602	1.06148774	1.0685769;
	19	 -6.25659	-5.81781406	 -1.02762	-0.961879634	0.997017365	1.00448113;
	20	-0.794972	-0.746496316	-0.0103119	-0.00965665248	0.971632217	0.978802768;
	22	-0.216395	-0.202672158	-0.0723315	-0.0678244649	1.04663335	1.05412727;
	24	-0.465887	-0.433970826	-0.124344	-0.115830848	1.01992797	1.02654457;
	25	-0.291098	-0.271330424	-0.0928528	-0.0871173106	0.994657823	1.00244208;
	32	 -1.60137	-1.49525459	-0.185833	-0.173196905	1.01712113	1.02433844;
	35	-0.894354	-0.830748132	-3.5249e-03	3.61110234e-03	1.02521408	1.03315421;
	37	-0.403734	-0.377704259	-0.093079	-0.0867359633	0.997154179	1.0046734;
	38	 -2.01532	-1.88101007	     -0.3	-0.280873019	1.00537854	1.01178099;
	41	-0.602943	-0.557329368	-0.121944	-0.113448442	0.974146325	0.981349535;
	42	-0.422927	-0.397411602	-0.195707	-0.183170315	0.998124876	1.00545291;
	44	0.0481625	0.0516135388	-0.0516922	-0.0480975764	1.02129418	1.02909202;
	45	-0.632581	-0.590266229	-0.290989	-0.269898461	0.994572175	1.0015836;
	46	-0.714721	-0.668538528	-0.0311816	-0.0290687093	0.992864512	0.999494938;
	47	-0.103024	-0.0969467975	-0.0103504	-0.00961350033	1.00172039	1.00817766;
	49	 -1.01283	-0.947971116	-0.207769	-0.192988873	1.02993239	1.03721781;
	50	-0.145116	-0.13511078	-0.0103193	-0.00962833285	0.988017311	0.995057446;
	51	 -2.24941	-2.09492472	 -1.09937	-1.02029708	0.975018199	0.982303486;
	53	 -2.34578	-2.20132134	 -1.14215	-1.05649967	0.986891717	0.994470722;
	55	-0.721653	-0.676974911	-0.0521195	-0.0487342581	0.954838461	0.961528276;
	61	 -2.32468	-2.17188766	-0.732138	-0.687828415	0.973959383	0.980727461;
	63	 -2.15216	-2.00600643	-0.754925	-0.705383706	0.959973041	0.966628598;
	64	-0.767792	-0.71674086	  -0.2887	-0.269426475	0.980530556	0.987184149;
	67	-0.289649	-0.270866999	-0.0724592	-0.0674547386	0.983328748	0.99045561;
	69	    3.252	3.51449765	  1.15584	1.24579767	1.02121924	1.02831146;
	74	-0.455415	-0.425101188	-3.17613e-03	3.44495602e-03	1.02851992	1.0351066;
	75	-0.686322	-0.637366586	-3.8428e-03	3.59766516e-03	1.02341972	1.0304333;
	76	  1.32216	1.42307164	  0.42332	0.455090836	1.04874	1.05604458;
	77	  2.65208	2.83720473	 0.298941	0.321034639	1.04806219	1.05616391;
	79	-0.412466	-0.385189238	-3.17955e-03	3.18410754e-03	1.01470882	1.02201951;
	80	0.0125845	0.0134184615	-0.111169	-0.102688591	0.996757172	1.00375572;
	81	-0.868119	-0.804710888	-3.6045e-03	3.76411644e-03	0.985604651	0.993184203;
	84	-0.330829	-0.309271702	-3.13413e-03	3.8109421e-03	1.02559949	1.03227724;
	85	-0.0887563	-0.0833101617	-3.29057e-03	3.90413101e-03	0.992548377	0.998937597;
	87	-0.0474245	-0.0442811684	-3.29076e-03	3.82499829e-03	1.00582894	1.01268995;
	89	-0.316916	-0.29703763	-3.08637e-03	3.78015808e-03	0.9722595	0.978359604;
	90	-0.651202	-0.606887111	-3.81645e-03	3.95588232e-03	0.970236022	0.976329663;
	91	-0.201993	-0.190071102	-3.5991e-03	3.75978776e-03	0.971243061	0.977784652;
	92	-0.272056	-0.253431635	-3.25252e-03	3.44621495e-03	0.967106274	0.973629782;
	97	-0.146577	-0.135716214	 -6.75835	-6.29490354	0.926192691	0.932921737;
	98	  18.6343	20.027431	  10.1589	10.869627	1.04032268	1.04751419;
	99	 -8.07114	-7.48767125	 -2.22398	-2.07295567	0.955469233	0.961923502;
	100	 -5.51657	-5.14723252	-0.571192	-0.529385045	0.983895293	0.990277858;
	102	-0.809768	-0.751182793	-0.0145491	-0.0134574145	0.997414278	1.00361474;
	105	-0.600631	-0.556144641	-0.0528879	-0.0492835118	0.993851389	1.00160927;
	106	 -3.93737	-3.67069553	-0.384206	-0.356252411	0.996637916	1.00407362;
	116	 -2.84156	-2.62679604	 -1.03311	-0.95890263	1.04378005	1.05063302;
	117	 -10.5096	-9.81408306	 0.899413	0.969691143	1.05100971	1.05873129;
	118	 -6.13222	-5.71303658	 -0.86561	-0.803089621	1.0081266	1.0154193;
	120	  1.31629	1.40359169	0.0683499	0.0731925388	1.04737127	1.05434832;