function mpc = caseWest10k_SE
%CASEWEST10K_SE

%% MATPOWER Case Format : Version 2
mpc.version = '2';

%%-----  Power Flow Data  -----%%
%% system MVA base
mpc.baseMVA = 100;

%% bus data
%	bus_i	type	Pd	Qd	Gs	Bs	area	Vm	Va	baseKV	zone	Vmax	Vmin	lam_P	lam_Q	mu_Vmax	mu_Vmin
mpc.bus = [
	1	1	9.64	2.54	0	0	1	1.00972487	-41.5060679	138	1	1.1	0.9	20.7700	0.2800	0.0000	0.0000;
	2	1	15.98	6.04	0	0	1	1.01528329	-38.702029	138	1	1.1	0.9	20.4700	0.2900	0.0000	0.0000;
	3	1	14.39	1.09	0	0	1	1.03011968	-35.6944672	138	1	1.1	0.9	20.0800	0.2600	0.0000	0.0000;
	4	1	0	0	0	0	1	1.03117091	-35.5816706	138	1	1.1	0.9	20.0600	0.2600	0.0000	0.0000;
	5	1	10.45	2.75	0	0	1	1.03111925	-35.5879781	138	1	1.1	0.9	20.0600	0.2600	0.0000	0.0000;
	6	1	13.44	1.28	0	0	1	1.02639662	-37.5678449	138	1	1.1	0.9	20.3300	0.1300	0.0000	0.0000;
	7	1	0	0	0	0	1	1.02644642	-37.5597237	138	1	1.1	0.9	20.3300	0.1300	0.0000	0.0000;
	8	1	0	0	0	0	1	1.0239586	-36.488202	138	1	1.1	0.9	20.2500	0.1200	0.0000	0.0000;
	9	1	16.82	2.59	0	0	1	1.02389335	-36.4974828	138	1	1.1	0.9	20.2500	0.1200	0.0000	0.0000;
	10	1	33.49	15.14	0	0	1	1.02147055	-36.5016639	138	1	1.1	0.9	20.1800	0.2900	0.0000	0.0000;
	11	1	32.02	8.17	0	0	1	1.00539397	-42.2649673	138	1	1.1	0.9	20.7700	0.2900	0.0000	0.0000;
	12	1	0	0	0	0	1	1.03411079	-33.9105897	345	1	1.1	0.9	20.0400	0.2200	0.0000	0.0000;
	13	1	57.79	30.06	0	0	1	1.02655369	-35.980144	138	1	1.1	0.9	20.0700	0.2600	0.0000	0.0000;
	14	1	0	0	0	0	1	1.02406232	-36.2952985	138	1	1.1	0.9	20.1300	0.2700	0.0000	0.0000;
	15	1	25.01	11.8	0	0	1	1.02387084	-36.3084406	138	1	1.1	0.9	20.1300	0.2700	0.0000	0.0000;
	16	1	0	0	0	0	1	1.02025438	-33.9912382	138	1	1.1	0.9	20.0300	0.0900	0.0000	0.0000;
	17	1	25.89	7.16	0	0	1	1.02011004	-34.006672	138	1	1.1	0.9	20.0300	0.0900	0.0000	0.0000;
	18	1	24.47	6.19	0	0	1	1.03023345	-37.0286241	138	1	1.1	0.9	20.2100	0.2700	0.0000	0.0000;
	19	1	0	0	0	0	1	1.03634134	-38.1838343	345	1	1.1	0.9	20.3900	0.2300	0.0000	0.0000;
	20	1	53.35	4.54	0	32	1	1.01432773	-40.7279883	138	1	1.1	0.9	20.4800	0.2600	0.0000	0.0000;
	21	1	8.99	2.13	0	0	1	1.0322006	-33.7028746	138	1	1.1	0.9	19.9100	0.1100	0.0000	0.0000;
	22	1	48.19	15.92	0	0	1	1.03856847	-37.3470446	138	1	1.1	0.9	20.2200	0.2400	0.0000	0.0000;
	23	1	0	0	0	0	1	1.03063219	-34.8729379	345	1	1.1	0.9	20.1200	0.2300	0.0000	0.0000;
	24	1	43.96	8.97	0	0	1	1.04193701	-37.2673878	138	1	1.1	0.9	20.1900	0.2200	0.0000	0.0000;
	25	1	30.89	12.76	0	0	1	1.03026974	-34.389125	138	1	1.1	0.9	19.9200	0.1100	0.0000	0.0000;
	26	1	18.65	4.97	0	0	1	1.0029703	-42.7190259	138	1	1.1	0.9	20.4000	0.1800	0.0000	0.0000;
	27	1	0	0	0	0	1	1.00246723	-42.7358044	138	1	1.1	0.9	20.8000	0.3300	0.0000	0.0000;
	28	1	32.23	12.72	0	0	1	1.0022569	-42.7528556	138	1	1.1	0.9	20.8100	0.3300	0.0000	0.0000;
	29	1	32.23	1.85	0	0	1	1.00724393	-42.1153637	138	1	1.1	0.9	20.6800	0.3000	0.0000	0.0000;
	30	1	0	0	0	0	1	1.03552151	-36.7075261	138	1	1.1	0.9	20.1700	0.2500	0.0000	0.0000;
	31	1	39.8	7.18	0	0	1	1.03535475	-36.7289442	138	1	1.1	0.9	20.1800	0.2500	0.0000	0.0000;
	32	1	41.5	5.68	0	0	1	1.02868934	-37.7779578	138	1	1.1	0.9	20.2900	0.2700	0.0000	0.0000;
	33	1	59.05	6.96	0	0	1	1.03020589	-34.3268925	138	1	1.1	0.9	19.9400	0.1700	0.0000	0.0000;
	34	1	0	0	0	0	1	1.03038913	-34.2060637	138	1	1.1	0.9	19.9200	0.1800	0.0000	0.0000;
	35	1	59.05	42.65	0	0	1	1.02985051	-34.23402	138	1	1.1	0.9	19.9300	0.1800	0.0000	0.0000;
	36	1	0	0	0	0	1	1.03102253	-34.1740296	138	1	1.1	0.9	19.9200	0.1700	0.0000	0.0000;
	37	1	58.29	11.32	0	0	1	1.02852881	-33.7476093	138	1	1.1	0.9	19.9300	0.0900	0.0000	0.0000;
	38	1	36.59	13.17	0	0	1	1.03341676	-38.0585069	138	1	1.1	0.9	20.3300	0.2600	0.0000	0.0000;
	39	1	0	0	0	0	1	1.03365294	-38.0391426	138	1	1.1	0.9	20.3300	0.2600	0.0000	0.0000;
	40	1	43.57	13.69	0	0	1	1.02771995	-38.7473917	138	1	1.1	0.9	20.4000	0.2800	0.0000	0.0000;
	41	1	20.08	9.93	0	0	1	1.02492673	-32.9810495	138	1	1.1	0.9	19.8700	0.0900	0.0000	0.0000;
	42	1	59.25	11.36	0	0	1	1.0300608	-34.8581198	138	1	1.1	0.9	19.9700	0.1300	0.0000	0.0000;
	43	1	0	0	0	0	1	1.01318162	-40.4715237	138	1	1.1	0.9	20.5500	0.3000	0.0000	0.0000;
	44	1	37.54	1.74	0	0	1	1.01307442	-40.495729	138	1	1.1	0.9	20.5500	0.3000	0.0000	0.0000;
	45	1	25.35	12.91	0	0	1	1.02448288	-33.8309002	138	1	1.1	0.9	19.9300	0.1300	0.0000	0.0000;
	46	1	0	0	0	0	1	1.01855544	-36.1881315	138	1	1.1	0.9	20.1600	0.1700	0.0000	0.0000;
	47	1	45.76	5.94	0	0	1	1.01839719	-36.2129098	138	1	1.1	0.9	20.1600	0.1700	0.0000	0.0000;
	48	1	45.76	10.24	0	0	1	1.01902711	-36.1628356	138	1	1.1	0.9	20.1500	0.1700	0.0000	0.0000;
	49	1	0	0	0	0	1	1.01923775	-36.1375453	138	1	1.1	0.9	20.1500	0.1700	0.0000	0.0000;
	50	1	0	0	0	0	1	1.01902711	-36.1628356	138	1	1.1	0.9	20.1500	0.1700	0.0000	0.0000;
	51	1	0	0	0	0	1	1.00495686	-42.4566335	138	1	1.1	0.9	20.3700	0.1800	0.0000	0.0000;
	52	1	17.51	1.94	0	0	1	1.00488807	-42.4677841	138	1	1.1	0.9	20.3700	0.1800	0.0000	0.0000;
	53	1	43.68	4.56	0	0	1	1.02241466	-35.3513215	138	1	1.1	0.9	20.1200	0.1300	0.0000	0.0000;
	54	1	43.32	16.13	0	0	1	1.00350151	-42.7234983	138	1	1.1	0.9	20.8300	0.3400	0.0000	0.0000;
	55	1	17.57	5.16	0	0	1	1.02164389	-36.4109541	138	1	1.1	0.9	20.1400	0.1600	0.0000	0.0000;
	56	1	0	0	0	0	1	1.02174664	-36.4020028	138	1	1.1	0.9	20.1400	0.1600	0.0000	0.0000;
	57	1	0	0	0	0	1	1.02986496	-33.9562859	345	1	1.1	0.9	20.0700	0.1700	0.0000	0.0000;
	58	1	43.93	8.14	0	0	1	1.01885741	-36.3430735	138	1	1.1	0.9	20.1300	0.2000	0.0000	0.0000;
	59	1	0	0	0	0	1	1.03073571	-33.8608908	345	1	1.1	0.9	20.0600	0.1700	0.0000	0.0000;
	60	1	43.93	27.62	0	0	1	1.01648693	-36.4298143	138	1	1.1	0.9	20.1600	0.2000	0.0000	0.0000;
	61	1	51.07	18.71	0	22	1	1.02300752	-39.7413831	138	1	1.1	0.9	20.5300	0.2800	0.0000	0.0000;
	62	1	0	0	0	0	1	1.016006	-41.5456082	138	1	1.1	0.9	20.6600	0.3000	0.0000	0.0000;
	63	1	0	0	0	0	1	1.01618975	-41.5263351	138	1	1.1	0.9	20.6500	0.3000	0.0000	0.0000;
	64	1	36.24	9.3	0	0	1	1.01580874	-41.5669645	138	1	1.1	0.9	20.6600	0.3000	0.0000	0.0000;
	65	1	46.26	6.82	0	0	1	1.01355532	-41.3761003	138	1	1.1	0.9	20.6400	0.3000	0.0000	0.0000;
	66	1	0	0	0	0	1	1.01355532	-41.3761003	13.8	1	1.1	0.9	20.6400	0.3000	0.0000	0.0000;
	67	1	0	0	0	0	1	1.01355532	-41.3761003	13.8	1	1.1	0.9	20.6400	0.3000	0.0000	0.0000;
	68	1	0	0	0	0	1	1.01355532	-41.3761003	1	1	1.1	0.9	20.6400	0.3000	0.0000	0.0000;
	69	1	58.86	14.48	0	0	1	1.02929248	-34.8115145	138	1	1.1	0.9	20.0200	0.1900	0.0000	0.0000;
	70	1	11.07	0.16	0	0	1	1.02082143	-40.6945401	138	1	1.1	0.9	20.5800	0.2800	0.0000	0.0000;
	71	1	38.37	10.34	0	0	1	1.02081589	-36.6739133	138	1	1.1	0.9	20.1700	0.1700	0.0000	0.0000;
	72	1	0	0	0	0	1	1.01616393	-36.7726507	138	1	1.1	0.9	20.1700	0.2100	0.0000	0.0000;
	73	1	38.37	20.18	0	0	1	1.01582525	-36.7934957	138	1	1.1	0.9	20.1800	0.2200	0.0000	0.0000;
	74	1	0	0	0	0	1	1.02469824	-35.1260742	138	1	1.1	0.9	20.0600	0.1900	0.0000	0.0000;
	75	1	14.72	4.64	0	0	1	1.0246158	-35.134309	138	1	1.1	0.9	20.0600	0.1900	0.0000	0.0000;
	76	1	27.96	2.98	0	0	1	1.02113437	-39.8444837	138	1	1.1	0.9	20.5300	0.2800	0.0000	0.0000;
	77	1	28.46	7.93	0	0	1	1.02210209	-36.567347	138	1	1.1	0.9	20.1900	0.2400	0.0000	0.0000;
	78	1	0	0	0	0	1	1.03728478	-35.9778212	345	1	1.1	0.9	20.2500	0.2400	0.0000	0.0000;
	79	1	55.86	12.51	0	0	1	1.0237927	-39.8676696	138	1	1.1	0.9	20.4100	0.3000	0.0000	0.0000;
	80	1	0	0	0	0	1	1.01302169	-45.4769583	24	1	1.1	0.9	20.6400	0.3500	0.0000	0.0000;
	81	1	0	0	0	0	1	1.01302169	-45.4769583	1	1	1.1	0.9	20.6400	0.3500	0.0000	0.0000;
	82	1	0	0	0	0	1	1.0200193	-40.7303956	138	1	1.1	0.9	20.5500	0.3000	0.0000	0.0000;
	83	1	22.32	8.77	0	0	1	1.01986668	-40.7420986	138	1	1.1	0.9	20.5500	0.3000	0.0000	0.0000;
	84	1	0	0	0	0	1	1.02742495	-39.7662497	138	1	1.1	0.9	19.9100	0.1200	0.0000	0.0000;
	85	1	40.86	5.87	0	0	1	1.02726759	-39.7916813	138	1	1.1	0.9	19.9100	0.1200	0.0000	0.0000;
	86	1	0	0	0	0	1	1.02756496	-39.7446235	138	1	1.1	0.9	19.9000	0.1200	0.0000	0.0000;
	87	1	10.87	8.58	0	0	1	1.01521174	-41.5049425	138	1	1.1	0.9	20.6900	0.2800	0.0000	0.0000;
	88	1	0	0	0	0	1	1.0280843	-41.0457424	138	1	1.1	0.9	20.5600	0.2600	0.0000	0.0000;
	89	1	33.23	4.19	0	0	1	1.02795636	-41.0653969	138	1	1.1	0.9	20.5700	0.2600	0.0000	0.0000;
	90	1	33.23	6.75	0	0	1	1.02139561	-41.1215636	138	1	1.1	0.9	20.6000	0.2900	0.0000	0.0000;
	91	1	37.67	4.7	0	0	1	1.02064972	-35.4111671	138	1	1.1	0.9	20.0500	0.2200	0.0000	0.0000;
	92	1	31.46	1.7	0	0	1	1.02053533	-36.6734094	138	1	1.1	0.9	20.2100	0.2500	0.0000	0.0000;
	93	1	31.46	11.16	0	0	1	1.02249852	-37.4220617	138	1	1.1	0.9	20.2700	0.2500	0.0000	0.0000;
	94	1	0	0	0	0	1	1.02029474	-40.040329	138	1	1.1	0.9	20.5300	0.2800	0.0000	0.0000;
	95	1	0	0	0	0	1	1.02038148	-40.0303255	138	1	1.1	0.9	20.5300	0.2800	0.0000	0.0000;
	96	1	18.02	4.43	0	0	1	1.02021328	-40.0502488	138	1	1.1	0.9	20.5400	0.2800	0.0000	0.0000;
	97	1	31.02	5.28	0	0	1	1.02210722	-35.9316913	138	1	1.1	0.9	20.0900	0.2300	0.0000	0.0000;
	98	1	19.84	5.6	0	0	1	1.01722596	-36.9801003	138	1	1.1	0.9	20.1900	0.2100	0.0000	0.0000;
	99	1	0	0	0	0	1	1.01734533	-36.9685132	138	1	1.1	0.9	20.1900	0.2100	0.0000	0.0000;
	100	1	0	0	0	0	1	1.03035769	-37.256492	138	1	1.1	0.9	20.2400	0.2400	0.0000	0.0000;
	101	1	0	0	0	0	1	1.03051327	-37.2383189	138	1	1.1	0.9	20.2400	0.2400	0.0000	0.0000;
	102	1	33.88	8.27	0	0	1	1.03017423	-37.2765196	138	1	1.1	0.9	20.2400	0.2500	0.0000	0.0000;
	103	1	0	0	0	0	1	1.02443111	-37.1358516	138	1	1.1	0.9	20.2500	0.2700	0.0000	0.0000;
	104	1	57.74	17.1	0	0	1	1.02409155	-37.1659013	138	1	1.1	0.9	20.2600	0.2700	0.0000	0.0000;
	105	1	0	0	0	0	1	1.02476068	-37.1029073	138	1	1.1	0.9	20.2500	0.2700	0.0000	0.0000;
	106	1	51.34	13.64	0	0	1	1.01061497	-41.4005171	138	1	1.1	0.9	20.2000	0.1600	0.0000	0.0000;
	107	1	26.95	1.82	0	0	1	1.02331421	-39.3083671	138	1	1.1	0.9	20.5100	0.2200	0.0000	0.0000;
	108	1	0	0	0	0	1	1.02339054	-39.2913998	138	1	1.1	0.9	20.5100	0.2200	0.0000	0.0000;
	109	1	0	0	0	0	1	1.02331421	-39.3083671	138	1	1.1	0.9	20.5100	0.2200	0.0000	0.0000;
	110	1	12.48	4.31	0	0	1	1.02583433	-35.4753306	138	1	1.1	0.9	20.0200	0.1400	0.0000	0.0000;
	111	1	0	0	0	0	1	1.02590711	-35.4684297	138	1	1.1	0.9	20.0200	0.1400	0.0000	0.0000;
	112	1	11.2	2.7	0	0	1	1.02354072	-36.1261917	138	1	1.1	0.9	20.1100	0.1600	0.0000	0.0000;
	113	1	0	0	0	0	1	1.02565786	-40.6614238	138	1	1.1	0.9	20.5300	0.2900	0.0000	0.0000;
	114	1	31.06	13.53	0	0	1	1.02544232	-40.6787067	138	1	1.1	0.9	20.5300	0.2900	0.0000	0.0000;
	115	1	31.06	11.74	0	0	1	1.02525967	-40.6329245	138	1	1.1	0.9	20.5200	0.3000	0.0000	0.0000;
	116	1	47.94	5.39	0	0	1	1.03474127	-35.4591332	138	1	1.1	0.9	20.0300	0.1600	0.0000	0.0000;
	117	1	0	0	0	0	1	1.03563312	-31.618125	345	1	1.1	0.9	19.9100	0.1100	0.0000	0.0000;
	118	1	45.39	21.63	0	0	1	1.03458271	-35.486018	138	1	1.1	0.9	20.0200	0.1700	0.0000	0.0000;
	119	1	0	0	0	0	1	1.03472348	-35.8446633	13.8	1	1.1	0.9	20.0300	0.1700	0.0000	0.0000;
	120	1	0	0	0	0	1	1.03472348	-35.8446633	1	1	1.1	0.9	20.0300	0.1700	0.0000	0.0000;
	121	1	0	0	0	0	1	1.01771621	-40.6420299	138	1	1.1	0.9	20.5500	0.3100	0.0000	0.0000;
	122	1	35.43	19.18	0	0	1	1.0174237	-40.6618135	138	1	1.1	0.9	20.5500	0.3100	0.0000	0.0000;
	123	1	0	0	0	0	1	1.01930415	-40.4645485	138	1	1.1	0.9	20.5100	0.3100	0.0000	0.0000;
	124	1	0	0	0	0	1	1.01945544	-40.4428416	138	1	1.1	0.9	20.5100	0.3100	0.0000	0.0000;
	125	1	35.43	7.06	0	0	1	1.01914731	-40.4859338	138	1	1.1	0.9	20.5100	0.3100	0.0000	0.0000;
	126	1	0	0	0	0	1	1.01930415	-40.4645485	138	1	1.1	0.9	20.5100	0.3100	0.0000	0.0000;
	127	1	0	0	0	0	1	1.02107927	-36.4421913	345	1	1.1	0.9	20.2800	0.2500	0.0000	0.0000;
	128	1	44.89	16.27	0	0	1	1.03446964	-40.3492031	138	1	1.1	0.9	20.4500	0.2400	0.0000	0.0000;
	129	1	50.09	14.75	0	0	1	1.03104393	-37.0628918	138	1	1.1	0.9	20.2200	0.2500	0.0000	0.0000;
	130	1	50.09	14.37	0	0	1	1.01689168	-36.7940278	138	1	1.1	0.9	20.2100	0.2800	0.0000	0.0000;
	131	1	0	0	0	0	1	1.02478521	-37.0712964	138	1	1.1	0.9	20.2400	0.2700	0.0000	0.0000;
	132	1	41.72	12.38	0	0	1	1.02454498	-37.0959235	138	1	1.1	0.9	20.2500	0.2700	0.0000	0.0000;
	133	1	0	0	0	0	1	1.02078315	-39.9893857	138	1	1.1	0.9	20.5500	0.2800	0.0000	0.0000;
	134	1	71.03	8.23	0	0	1	1.02050496	-40.0283578	138	1	1.1	0.9	20.5600	0.2800	0.0000	0.0000;
	135	1	61.01	13.93	0	0	1	1.03102931	-39.5581304	138	1	1.1	0.9	19.8600	0.1200	0.0000	0.0000;
	136	1	0	0	0	0	1	1.03133195	-39.5222599	138	1	1.1	0.9	19.8600	0.1200	0.0000	0.0000;
	137	1	20.07	5.15	0	0	1	1.02102	-35.765991	138	1	1.1	0.9	20.0800	0.2300	0.0000	0.0000;
	138	1	38.05	7.43	0	0	1	1.02272656	-41.1546894	138	1	1.1	0.9	20.5800	0.2800	0.0000	0.0000;
	139	1	35	8.78	0	0	1	1.06006467	-38.0498636	138	1	1.1	0.9	20.1700	0.1800	0.0000	0.0000;
	140	1	16.07	5.79	0	0	1	1.02104607	-40.6698904	138	1	1.1	0.9	20.5300	0.3100	0.0000	0.0000;
	141	1	41.11	16.66	0	0	1	1.0207552	-40.6934041	138	1	1.1	0.9	20.5300	0.3200	0.0000	0.0000;
	142	1	41.11	1.31	0	0	1	1.01773434	-40.9359893	138	1	1.1	0.9	20.5900	0.3300	0.0000	0.0000;
	143	1	0	0	0	0	1	1.01785247	-40.9103445	138	1	1.1	0.9	20.5800	0.3300	0.0000	0.0000;
	144	1	0	0	0	0	1	1.01773434	-40.9359893	138	1	1.1	0.9	20.5900	0.3300	0.0000	0.0000;
	145	1	37.97	9.24	0	0	1	1.01425651	-36.2083425	138	1	1.1	0.9	20.1600	0.2700	0.0000	0.0000;
	146	1	37.97	9.3	0	0	1	1.01547307	-36.7243241	138	1	1.1	0.9	20.2000	0.2900	0.0000	0.0000;
	147	1	0	0	0	0	1	1.01566711	-36.7015599	138	1	1.1	0.9	20.2000	0.2800	0.0000	0.0000;
	148	1	52.25	24.72	0	0	1	1.02187506	-37.1047379	138	1	1.1	0.9	20.2600	0.2700	0.0000	0.0000;
	149	1	0	0	0	0	1	1.02302223	-41.2547165	138	1	1.1	0.9	20.6100	0.2800	0.0000	0.0000;
	150	1	7.99	4.67	0	0	1	1.01436479	-42.0777045	18	1	1.1	0.9	20.6400	0.2900	0.0000	0.0000;
	151	1	11.73	1.24	0	0	1	1.0193634	-42.4064279	18	1	1.1	0.9	20.6500	0.2800	0.0000	0.0000;
	152	1	0	0	0	0	1	1.02207519	-41.40266	1	1	1.1	0.9	20.6100	0.2800	0.0000	0.0000;
	153	1	35.35	3.89	0	0	1	1.01865143	-37.1843207	138	1	1.1	0.9	20.2200	0.1900	0.0000	0.0000;
	154	1	33.06	13.11	0	0	1	1.05848321	-38.1909544	138	1	1.1	0.9	20.1900	0.1900	0.0000	0.0000;
	155	1	0	0	0	0	1	1.01717863	-37.1480923	138	1	1.1	0.9	20.2100	0.2100	0.0000	0.0000;
	156	1	33.52	4.02	0	0	1	1.01704887	-37.1675543	138	1	1.1	0.9	20.2100	0.2100	0.0000	0.0000;
	157	1	32.33	10.35	0	80	1	1.03522726	-40.3808079	138	1	1.1	0.9	20.4600	0.2300	0.0000	0.0000;
	158	1	0	0	0	0	1	1.03444223	-40.3519382	138	1	1.1	0.9	20.4500	0.2400	0.0000	0.0000;
	159	1	15.22	4.81	0	0	1	1.02761613	-40.3131727	138	1	1.1	0.9	20.4500	0.2700	0.0000	0.0000;
	160	1	55.26	20.75	0	0	1	1.01418767	-40.7970685	138	1	1.1	0.9	20.6000	0.3500	0.0000	0.0000;
	161	1	0	0	0	0	1	1.02091315	-43.1366529	138	1	1.1	0.9	20.9200	0.2400	0.0000	0.0000;
	162	1	25.6	5.53	0	0	1	1.02077676	-43.1518234	138	1	1.1	0.9	20.9200	0.2400	0.0000	0.0000;
	163	1	0	0	0	0	1	1.02103868	-43.1224143	138	1	1.1	0.9	20.9100	0.2400	0.0000	0.0000;
	164	1	26.64	6.54	0	0	1	1.01808356	-37.279213	138	1	1.1	0.9	20.2100	0.2000	0.0000	0.0000;
	165	1	0	0	0	0	1	1.0141673	-41.4639167	138	1	1.1	0.9	20.6200	0.3200	0.0000	0.0000;
	166	1	47.72	5.4	0	0	1	1.01398192	-41.4940501	138	1	1.1	0.9	20.6300	0.3200	0.0000	0.0000;
	167	1	32.36	10.77	0	0	1	1.03465975	-36.816619	138	1	1.1	0.9	20.1900	0.2300	0.0000	0.0000;
	168	1	32.36	10.63	0	0	1	1.02817536	-37.0276341	138	1	1.1	0.9	20.2200	0.2600	0.0000	0.0000;
	169	1	0	0	0	0	1	1.01912673	-37.3850126	138	1	1.1	0.9	20.2000	0.2100	0.0000	0.0000;
	170	1	14.51	0.92	0	0	1	1.01907973	-37.3932116	138	1	1.1	0.9	20.2000	0.2100	0.0000	0.0000;
	171	1	51.86	8.23	0	0	1	1.01646996	-40.3067753	138	1	1.1	0.9	20.4500	0.3100	0.0000	0.0000;
	172	1	0	0	0	0	1	1.01636402	-35.7295818	138	1	1.1	0.9	20.1200	0.2500	0.0000	0.0000;
	173	1	0	0	0	0	1	1.01652344	-35.7049282	138	1	1.1	0.9	20.1100	0.2500	0.0000	0.0000;
	174	1	41.08	5.55	0	0	1	1.01619607	-35.7559871	138	1	1.1	0.9	20.1200	0.2500	0.0000	0.0000;
	175	1	41.08	12.71	0	0	1	1.01848227	-35.0911208	138	1	1.1	0.9	20.0200	0.2300	0.0000	0.0000;
	176	1	0	0	0	0	1	1.01873666	-35.0662649	138	1	1.1	0.9	20.0200	0.2300	0.0000	0.0000;
	177	1	37	12.28	0	0	1	1.03509853	-36.5850965	138	1	1.1	0.9	20.1600	0.2300	0.0000	0.0000;
	178	1	37	6.33	0	0	1	1.01902943	-36.8982249	138	1	1.1	0.9	20.2300	0.2800	0.0000	0.0000;
	179	1	55.41	4.59	0	0	1	1.03058055	-39.7016644	138	1	1.1	0.9	19.8800	0.1200	0.0000	0.0000;
	180	1	1.46	0.56	0	0	1	1.02544373	-39.4758412	138	1	1.1	0.9	19.8700	0.1100	0.0000	0.0000;
	181	1	0	0	0	0	1	1.02561752	-39.4450908	138	1	1.1	0.9	19.8600	0.1100	0.0000	0.0000;
	182	1	55.41	4.8	0	0	1	1.0252801	-39.509276	138	1	1.1	0.9	19.8700	0.1100	0.0000	0.0000;
	183	1	48.59	5.25	0	0	1	1.01906966	-40.2377307	138	1	1.1	0.9	20.4400	0.3000	0.0000	0.0000;
	184	1	0	0	0	0	1	1.03820972	-40.0384537	138	1	1.1	0.9	20.4000	0.2300	0.0000	0.0000;
	185	1	68.06	27.25	0	0	1	1.0377181	-40.0755569	138	1	1.1	0.9	20.4100	0.2300	0.0000	0.0000;
	186	1	0	0	0	0	1	1.028185	-37.1454019	138	1	1.1	0.9	20.2500	0.2000	0.0000	0.0000;
	187	1	37.59	7.22	0	0	1	1.02800603	-37.1661786	138	1	1.1	0.9	20.2500	0.2000	0.0000	0.0000;
	188	1	51.74	17.55	0	0	1	1.01767353	-34.7341816	138	1	1.1	0.9	20.0100	0.1600	0.0000	0.0000;
	189	1	0	0	0	0	1	1.01800868	-34.7030543	138	1	1.1	0.9	20.0000	0.1600	0.0000	0.0000;
	190	1	0	0	0	0	1	1.01480335	-36.001517	138	1	1.1	0.9	20.1500	0.2700	0.0000	0.0000;
	191	1	63.47	6.05	0	0	1	1.01455127	-36.0400095	138	1	1.1	0.9	20.1500	0.2700	0.0000	0.0000;
	192	1	0	0	0	0	1	1.00559648	-33.6935004	345	1	1.1	0.9	20.0400	0.2000	0.0000	0.0000;
	193	1	63.47	25.63	0	0	1	1.0143731	-36.3768527	138	1	1.1	0.9	20.1600	0.2900	0.0000	0.0000;
	194	1	0	0	0	0	1	1.0143694	-36.3759536	24	1	1.1	0.9	20.1600	0.2900	0.0000	0.0000;
	195	1	0	0	0	0	1	1.0143694	-36.3759536	1	1	1.1	0.9	20.1600	0.2900	0.0000	0.0000;
	196	1	0	0	0	0	1	1.03921122	-33.8356203	345	1	1.1	0.9	20.0600	0.1900	0.0000	0.0000;
	197	1	0	0	0	0	1	1.06432806	-37.6776673	138	1	1.1	0.9	20.1200	0.1700	0.0000	0.0000;
	198	1	55.17	29.09	0	0	1	1.03876745	-33.8622793	345	1	1.1	0.9	20.0600	0.1900	0.0000	0.0000;
	199	1	25.51	11.27	0	0	1	1.01571475	-41.4746167	138	1	1.1	0.9	20.6300	0.3200	0.0000	0.0000;
	200	1	57.98	19.56	0	0	1	1.01944322	-40.5424425	138	1	1.1	0.9	20.4900	0.2900	0.0000	0.0000;
	201	1	45.34	7.86	0	0	1	1.02103542	-38.8707328	138	1	1.1	0.9	19.8500	0.0900	0.0000	0.0000;
	202	1	21.66	3.34	0	0	1	1.02279185	-37.1921224	138	1	1.1	0.9	20.2300	0.2900	0.0000	0.0000;
	203	1	0	0	0	0	1	1.02216906	-41.354298	138	1	1.1	0.9	20.7000	0.2300	0.0000	0.0000;
	204	1	12.67	2.56	0	0	1	1.0221089	-41.3621794	138	1	1.1	0.9	20.7000	0.2300	0.0000	0.0000;
	205	1	0	0	0	0	1	1.01341114	-38.6760459	138	1	1.1	0.9	20.3000	0.2800	0.0000	0.0000;
	206	1	40.75	8.43	0	0	1	1.01322561	-38.6991058	138	1	1.1	0.9	20.3100	0.2800	0.0000	0.0000;
	207	1	40.75	6.92	0	0	1	1.02299986	-40.6452517	138	1	1.1	0.9	20.5000	0.2800	0.0000	0.0000;
	208	1	24.17	6.6	0	0	1	1.02635985	-40.2827958	138	1	1.1	0.9	20.4400	0.2800	0.0000	0.0000;
	209	1	81.39	49.51	0	0	1	1.00990908	-38.8559071	138	1	1.1	0.9	20.3200	0.3200	0.0000	0.0000;
	210	1	49.48	10.28	0	0	1	1.02623741	-39.7757022	138	1	1.1	0.9	19.9000	0.1200	0.0000	0.0000;
	211	1	49.48	11.08	0	0	1	1.02066717	-39.6230244	138	1	1.1	0.9	19.9000	0.1200	0.0000	0.0000;
	212	1	0	0	0	0	1	1.02091284	-39.5923674	138	1	1.1	0.9	19.8900	0.1200	0.0000	0.0000;
	213	1	0	0	0	0	1	1.03332539	-33.2960066	138	1	1.1	0.9	19.8100	0.0800	0.0000	0.0000;
	214	1	12.52	3.35	0	0	1	1.0332595	-33.3027975	138	1	1.1	0.9	19.8100	0.0800	0.0000	0.0000;
	215	1	36.39	3.34	0	0	1	1.02319789	-39.0682373	138	1	1.1	0.9	19.9700	0.1100	0.0000	0.0000;
	216	1	0	0	0	0	1	1.02133628	-39.2013853	138	1	1.1	0.9	19.8900	0.1100	0.0000	0.0000;
	217	1	36.39	3.13	0	0	1	1.02121889	-39.2231121	138	1	1.1	0.9	19.9000	0.1100	0.0000	0.0000;
	218	1	30.67	6.45	0	90	1	1.02920309	-42.544878	138	1	1.1	0.9	20.8300	0.1800	0.0000	0.0000;
	219	1	38.5	11.16	0	0	1	1.02789161	-40.6096566	138	1	1.1	0.9	20.4900	0.2600	0.0000	0.0000;
	220	1	0	0	0	0	1	1.02809872	-40.5871829	138	1	1.1	0.9	20.4900	0.2600	0.0000	0.0000;
	221	1	38.5	7.16	0	0	1	1.02069251	-38.3912881	138	1	1.1	0.9	20.2400	0.2500	0.0000	0.0000;
	222	1	0	0	0	0	1	1.023144	-39.0305477	138	1	1.1	0.9	19.8700	0.0900	0.0000	0.0000;
	223	1	9.41	2.94	0	0	1	1.02309166	-39.0353701	138	1	1.1	0.9	19.8700	0.0900	0.0000	0.0000;
	224	1	0	0	0	0	1	1.01581757	-38.1075981	138	1	1.1	0.9	20.2200	0.2800	0.0000	0.0000;
	225	1	35.59	23.47	0	0	1	1.01546783	-38.1257645	138	1	1.1	0.9	20.2300	0.2800	0.0000	0.0000;
	226	1	35.59	19.12	0	0	1	1.01240528	-38.7034985	138	1	1.1	0.9	20.3100	0.2900	0.0000	0.0000;
	227	1	47.25	13.43	0	0	1	1.02249837	-42.263837	138	1	1.1	0.9	20.7700	0.2600	0.0000	0.0000;
	228	1	53.38	19.97	0	0	1	1.03251381	-39.7660544	138	1	1.1	0.9	20.4600	0.2800	0.0000	0.0000;
	229	1	35.45	4.71	0	50	1	1.03214101	-40.4252652	138	1	1.1	0.9	20.5300	0.2600	0.0000	0.0000;
	230	1	51.81	10.71	0	0	1	1.02466832	-37.9402988	138	1	1.1	0.9	20.1800	0.2400	0.0000	0.0000;
	231	1	51.81	15.83	0	0	1	1.02433902	-38.5129966	138	1	1.1	0.9	20.2200	0.2500	0.0000	0.0000;
	232	1	48.36	11.43	0	0	1	1.01063648	-39.7208805	138	1	1.1	0.9	20.4100	0.3200	0.0000	0.0000;
	233	1	0	0	0	0	1	1.02624858	-39.7137645	138	1	1.1	0.9	20.4800	0.2900	0.0000	0.0000;
	234	1	37.64	3.83	0	0	1	1.02610416	-39.7364299	138	1	1.1	0.9	20.4900	0.2900	0.0000	0.0000;
	235	1	0	0	0	0	1	1.02298086	-42.8677743	138	1	1.1	0.9	20.8700	0.2300	0.0000	0.0000;
	236	1	37.64	13.28	0	0	1	1.02275983	-42.8892519	138	1	1.1	0.9	20.8800	0.2300	0.0000	0.0000;
	237	1	33.48	6.19	0	0	1	1.02208198	-37.4023502	138	1	1.1	0.9	20.2600	0.2900	0.0000	0.0000;
	238	1	33.48	8.37	0	0	1	1.0218515	-37.3447765	138	1	1.1	0.9	20.2500	0.2900	0.0000	0.0000;
	239	1	50.01	9.84	0	0	1	1.0343757	-40.1965671	138	1	1.1	0.9	20.5000	0.2700	0.0000	0.0000;
	240	1	0	0	0	0	1	1.03460203	-40.16894	138	1	1.1	0.9	20.5000	0.2600	0.0000	0.0000;
	241	1	50.75	10.16	0	0	1	1.03535714	-39.369347	138	1	1.1	0.9	20.4300	0.2800	0.0000	0.0000;
	242	1	0	0	0	60	1	1.03079172	-39.6896134	138	1	1.1	0.9	20.4800	0.2700	0.0000	0.0000;
	243	1	45.67	5.61	0	0	1	1.03063831	-39.7150191	138	1	1.1	0.9	20.4900	0.2700	0.0000	0.0000;
	244	1	34.46	5.65	0	0	1	1.04741512	-34.5453587	138	1	1.1	0.9	19.9000	0.1000	0.0000	0.0000;
	245	1	34.46	8.68	0	0	1	1.04823265	-34.5119135	138	1	1.1	0.9	19.8900	0.1000	0.0000	0.0000;
	246	1	0	0	0	0	1	1.04839751	-34.4913311	138	1	1.1	0.9	19.8900	0.1000	0.0000	0.0000;
	247	1	41.16	3.94	0	0	1	1.01189409	-38.5996303	138	1	1.1	0.9	20.3100	0.2800	0.0000	0.0000;
	248	1	43.93	29.92	0	0	1	1.02231501	-42.3527763	138	1	1.1	0.9	20.8300	0.2200	0.0000	0.0000;
	249	1	50.49	5.58	0	0	1	1.02180859	-39.8543744	138	1	1.1	0.9	20.4900	0.3100	0.0000	0.0000;
	250	1	57.01	12.84	0	0	1	1.01488285	-40.7557897	138	1	1.1	0.9	20.5000	0.3200	0.0000	0.0000;
	251	1	57.01	22.38	0	0	1	1.01874478	-40.284464	138	1	1.1	0.9	20.4500	0.3000	0.0000	0.0000;
	252	1	31.11	9.46	0	0	1	1.0179042	-40.241245	138	1	1.1	0.9	20.5000	0.2900	0.0000	0.0000;
	253	1	0	0	0	0	1	1.01807044	-40.224265	138	1	1.1	0.9	20.5000	0.2800	0.0000	0.0000;
	254	1	31.11	19.53	0	0	1	1.01677388	-40.6631702	138	1	1.1	0.9	20.5600	0.3300	0.0000	0.0000;
	255	1	0	0	0	0	1	1.01705355	-40.6458096	138	1	1.1	0.9	20.5600	0.3300	0.0000	0.0000;
	256	1	0	0	0	0	1	1.01605663	-40.4014168	138	1	1.1	0.9	20.4600	0.3100	0.0000	0.0000;
	257	1	24.34	12.59	0	0	1	1.01585808	-40.4150471	138	1	1.1	0.9	20.4700	0.3200	0.0000	0.0000;
	258	1	0	0	0	0	1	1.01627013	-40.3876268	138	1	1.1	0.9	20.4600	0.3100	0.0000	0.0000;
	259	1	48.72	8.04	0	0	1	1.01509726	-40.2478044	138	1	1.1	0.9	20.4800	0.3100	0.0000	0.0000;
	260	1	30.31	12.35	0	0	1	1.03370573	-39.3265733	138	1	1.1	0.9	20.4200	0.2800	0.0000	0.0000;
	261	1	0	0	0	0	1	1.01864097	-40.1310867	138	1	1.1	0.9	20.5200	0.3200	0.0000	0.0000;
	262	1	54.9	12.07	0	0	1	1.01834577	-40.1643455	138	1	1.1	0.9	20.5200	0.3300	0.0000	0.0000;
	263	1	35.69	9.54	0	0	1	1.0534015	-33.8202596	138	1	1.1	0.9	19.7900	0.0600	0.0000	0.0000;
	264	1	0	0	0	0	1	1.0270223	-39.9308508	138	1	1.1	0.9	20.5000	0.2900	0.0000	0.0000;
	265	1	0	0	0	0	1	1.02716133	-39.9012055	138	1	1.1	0.9	20.5000	0.2900	0.0000	0.0000;
	266	1	49.72	2.39	0	0	1	1.02688859	-39.9602741	138	1	1.1	0.9	20.5100	0.2900	0.0000	0.0000;
	267	1	23.27	4.11	0	0	1	1.00400734	-36.0318553	138	1	1.1	0.9	20.2400	0.2800	0.0000	0.0000;
	268	1	0	0	0	0	1	1.01772944	-38.686762	138	1	1.1	0.9	20.3600	0.3100	0.0000	0.0000;
	269	1	53.47	13.72	0	0	1	1.01746299	-38.7186429	138	1	1.1	0.9	20.3700	0.3100	0.0000	0.0000;
	270	1	0	0	0	0	1	1.02972134	-39.3768762	138	1	1.1	0.9	20.4400	0.2800	0.0000	0.0000;
	271	1	53.47	7.16	0	0	1	1.02953133	-39.4063488	138	1	1.1	0.9	20.4500	0.2800	0.0000	0.0000;
	272	1	55.09	7.78	0	0	1	1.01718803	-40.1561305	138	1	1.1	0.9	20.5200	0.3300	0.0000	0.0000;
	273	1	55.09	20.54	0	0	1	1.01752119	-39.6400532	138	1	1.1	0.9	20.4400	0.3300	0.0000	0.0000;
	274	1	24.57	5.95	0	0	1	1.02931427	-39.4259502	138	1	1.1	0.9	20.4700	0.2900	0.0000	0.0000;
	275	1	0	0	0	0	1	1.01787499	-35.1192676	345	1	1.1	0.9	20.1900	0.2400	0.0000	0.0000;
	276	1	43.11	11.41	0	0	1	1.01943515	-37.773915	138	1	1.1	0.9	20.2500	0.2900	0.0000	0.0000;
	277	1	44.92	20.45	0	0	1	1.01503329	-38.9364282	138	1	1.1	0.9	20.4000	0.3100	0.0000	0.0000;
	278	1	0	0	0	0	1	1.01801842	-38.5556866	138	1	1.1	0.9	19.8800	0.1200	0.0000	0.0000;
	279	1	28.63	8.04	0	0	1	1.01785783	-38.5717481	138	1	1.1	0.9	19.8800	0.1200	0.0000	0.0000;
	280	1	0	0	0	0	1	1.0181717	-38.5381977	138	1	1.1	0.9	19.8800	0.1200	0.0000	0.0000;
	281	1	0	0	0	0	1	1.01801842	-38.5556866	138	1	1.1	0.9	19.8800	0.1200	0.0000	0.0000;
	282	1	0	0	0	0	1	1.01801842	-38.5556866	138	1	1.1	0.9	19.8800	0.1200	0.0000	0.0000;
	283	1	32.97	7.88	0	0	1	1.03458241	-40.1731866	138	1	1.1	0.9	20.5000	0.2600	0.0000	0.0000;
	284	1	0	0	0	0	1	1.03474868	-40.1530203	138	1	1.1	0.9	20.4900	0.2600	0.0000	0.0000;
	285	1	24.02	1.73	0	0	1	1.01771597	-40.2086383	138	1	1.1	0.9	20.5300	0.3200	0.0000	0.0000;
	286	1	53.39	18	0	0	1	1.02242878	-38.2247055	138	1	1.1	0.9	20.2100	0.2500	0.0000	0.0000;
	287	1	0	0	0	0	1	1.01605844	-39.6368446	138	1	1.1	0.9	20.3900	0.2900	0.0000	0.0000;
	288	1	49.12	9.58	0	0	1	1.01582225	-39.6676481	138	1	1.1	0.9	20.3900	0.2900	0.0000	0.0000;
	289	1	32.24	3.8	0	0	1	1.01426773	-38.159792	138	1	1.1	0.9	20.2600	0.2600	0.0000	0.0000;
	290	1	32.24	4.22	0	0	1	1.01308714	-38.7858267	138	1	1.1	0.9	20.3100	0.3000	0.0000	0.0000;
	291	1	0	0	0	0	1	1.01960952	-39.8260571	138	1	1.1	0.9	20.4800	0.3200	0.0000	0.0000;
	292	1	49.81	3.13	0	0	1	1.01944457	-39.8580566	138	1	1.1	0.9	20.4800	0.3200	0.0000	0.0000;
	293	1	52.98	28.47	0	0	1	1.01134253	-40.0976706	138	1	1.1	0.9	20.5200	0.3300	0.0000	0.0000;
	294	1	52.98	12.34	0	0	1	1.0139704	-39.0573277	138	1	1.1	0.9	20.3300	0.2900	0.0000	0.0000;
	295	1	0	0	0	0	1	1.01421921	-39.0290767	138	1	1.1	0.9	20.3300	0.2900	0.0000	0.0000;
	296	1	56.71	7.15	0	0	1	1.01454509	-40.0344646	138	1	1.1	0.9	20.4600	0.3000	0.0000	0.0000;
	297	1	0	0	0	0	1	1.01478009	-40.0025355	138	1	1.1	0.9	20.4600	0.3000	0.0000	0.0000;
	298	1	0	0	0	0	1	1.01069657	-40.0051273	138	1	1.1	0.9	20.4400	0.3200	0.0000	0.0000;
	299	1	41.5	28.64	0	0	1	1.01028	-40.0244472	138	1	1.1	0.9	20.4400	0.3300	0.0000	0.0000;
	300	1	0	0	0	0	1	1.02593327	-36.5034867	138	1	1.1	0.9	20.2000	0.2000	0.0000	0.0000;
	301	1	50.57	7.59	0	0	1	1.02574099	-36.5325917	138	1	1.1	0.9	20.2100	0.2000	0.0000	0.0000;
	302	1	0	0	0	50	1	1.02376265	-38.6495709	138	1	1.1	0.9	20.3700	0.2800	0.0000	0.0000;
	303	1	0	0	0	0	1	1.02354138	-38.6158464	138	1	1.1	0.9	20.3700	0.2800	0.0000	0.0000;
	304	1	0	0	0	0	1	1.02376265	-38.6495709	138	1	1.1	0.9	20.3700	0.2800	0.0000	0.0000;
	305	1	47.86	19.46	0	0	1	1.02341965	-38.677788	138	1	1.1	0.9	20.3800	0.2800	0.0000	0.0000;
	306	1	60.83	25.54	0	0	1	1.03693906	-39.8241315	138	1	1.1	0.9	20.4600	0.2600	0.0000	0.0000;
	307	1	48.61	20.93	0	0	1	1.01989836	-38.2009464	138	1	1.1	0.9	20.3100	0.3000	0.0000	0.0000;
	308	1	0	0	0	0	1	1.02024249	-38.1756014	138	1	1.1	0.9	20.3100	0.3000	0.0000	0.0000;
	309	1	39.33	13.63	0	0	1	1.02832583	-39.5319546	138	1	1.1	0.9	20.4600	0.2900	0.0000	0.0000;
	310	1	39.33	5.55	0	0	1	1.02599488	-38.7610256	138	1	1.1	0.9	20.3900	0.3000	0.0000	0.0000;
	311	1	0	0	0	0	1	1.01436935	-40.5942745	138	1	1.1	0.9	20.5500	0.3300	0.0000	0.0000;
	312	1	40.48	22.08	0	0	1	1.0139928	-40.6177565	138	1	1.1	0.9	20.5600	0.3400	0.0000	0.0000;
	313	1	0	0	0	0	1	1.01467935	-40.5742231	138	1	1.1	0.9	20.5500	0.3300	0.0000	0.0000;
	314	1	40.48	8.05	0	93.5	1	1.02542027	-40.5776349	138	1	1.1	0.9	20.5500	0.2200	0.0000	0.0000;
	315	1	44.5	8.52	0	0	1	1.02331095	-39.7654447	138	1	1.1	0.9	20.4900	0.3000	0.0000	0.0000;
	316	1	44.5	7.51	0	0	1	1.04243206	-39.2859464	138	1	1.1	0.9	20.3800	0.2400	0.0000	0.0000;
	317	1	0	0	0	0	1	1.0425983	-39.2605849	138	1	1.1	0.9	20.3700	0.2400	0.0000	0.0000;
	318	1	37.74	7.21	0	0	1	1.03162662	-39.1173284	138	1	1.1	0.9	20.4100	0.2800	0.0000	0.0000;
	319	1	0	0	0	0	1	1.02925799	-39.906163	138	1	1.1	0.9	20.4900	0.2900	0.0000	0.0000;
	320	1	37.74	9.18	0	0	1	1.02908	-39.9255496	138	1	1.1	0.9	20.4900	0.2900	0.0000	0.0000;
	321	1	32.26	13.89	0	0	1	1.023853	-39.8782371	138	1	1.1	0.9	20.5000	0.3000	0.0000	0.0000;
	322	1	32.26	6.52	0	0	1	1.03813257	-39.3198944	138	1	1.1	0.9	20.4000	0.2600	0.0000	0.0000;
	323	1	50.58	11.16	0	0	1	1.02648299	-39.7974308	138	1	1.1	0.9	20.4900	0.3000	0.0000	0.0000;
	324	1	32.27	4.42	0	0	1	1.01478239	-39.6025584	138	1	1.1	0.9	20.4800	0.3100	0.0000	0.0000;
	325	1	0	0	0	0	1	1.01491636	-39.5831468	138	1	1.1	0.9	20.4800	0.3100	0.0000	0.0000;
	326	1	32.27	7.92	0	0	1	1.01907087	-38.7644326	138	1	1.1	0.9	20.3800	0.3100	0.0000	0.0000;
	327	1	0	0	0	0	1	1.02782428	-39.7515181	138	1	1.1	0.9	20.5100	0.3000	0.0000	0.0000;
	328	1	52.71	7.81	0	0	1	1.02763154	-39.7845249	138	1	1.1	0.9	20.5100	0.3000	0.0000	0.0000;
	329	1	0	0	0	0	1	1.02802102	-39.7198983	138	1	1.1	0.9	20.5100	0.3000	0.0000	0.0000;
	330	1	0	0	0	0	1	1.00743173	-36.2362188	345	1	1.1	0.9	20.2800	0.2700	0.0000	0.0000;
	331	1	0	0	0	0	1	1.04424647	-39.079258	138	1	1.1	0.9	20.3500	0.2300	0.0000	0.0000;
	332	1	52.71	12.35	0	0	1	1.00715891	-36.2680974	345	1	1.1	0.9	20.2900	0.2700	0.0000	0.0000;
	333	1	0	0	0	0	1	1.01111518	-35.6999125	345	1	1.1	0.9	20.2300	0.2500	0.0000	0.0000;
	334	1	55.45	10.21	0	0	1	1.01717534	-39.4986671	138	1	1.1	0.9	20.4200	0.3300	0.0000	0.0000;
	335	1	0	0	0	0	1	1.01717534	-39.4986671	13.8	1	1.1	0.9	20.4200	0.3300	0.0000	0.0000;
	336	1	0	0	0	0	1	1.01717534	-39.4986671	13.8	1	1.1	0.9	20.4200	0.3300	0.0000	0.0000;
	337	1	0	0	0	0	1	1.01717534	-39.4986671	1	1	1.1	0.9	20.4200	0.3300	0.0000	0.0000;
	338	1	55.45	18.16	0	0	1	1.02831244	-39.7543171	138	1	1.1	0.9	20.5100	0.2900	0.0000	0.0000;