function mpc = case1354pegase_SE
%CASE1354PEGASE_SE

%% MATPOWER Case Format : Version 2
mpc.version = '2';

%%-----  Power Flow Data  -----%%
%% system MVA base
mpc.baseMVA = 100;

%% bus data
%	bus_i	type	Pd	Qd	Gs	Bs	area	Vm	Va	baseKV	zone	Vmax	Vmin
mpc.bus = [
	1	1	151	48.8	0	4.69	0	1.0166797	-21.1926397	220	5	1.1	0.9;
	2	1	171.41	23.4	0	2.1	0	1.02665747	-6.83266014	220	5	1.1	0.9;
	3	1	134	24.7	0	12.44	0	1.03851504	-23.7948546	220	5	1.1	0.9;
	4	1	161.2	39.3	0	30.71	0	1.03617049	-21.4577177	220	5	1.1	0.9;
	5	1	0	-0	0	0.85	0	1.03507394	-18.0168379	220	5	1.1	0.9;
	6	1	167.3	54.8	0	110.54	0	1.03234558	-3.08015708	380	5	1.1	0.9;
	7	1	152.9	49.4	0	27.65	0	0.994416677	-13.3564933	380	5	1.1	0.9;
	8	1	-0	0	0	7.27	0	1.04580961	-21.6931657	220	5	1.1	0.9;
	9	1	48.65	16.1	0	7.14	0	1.06343645	-8.98463149	220	5	1.1	0.9;
	10	1	0	0	0	2.31	0	0.986242542	-15.3045301	380	5	1.1	0.9;
	11	1	119.2	20.7	0	3.31	0	1.03683612	-23.4074421	220	5	1.1	0.9;
	12	1	363.25	115.39	0	3.95	0	1.04217696	-27.2268937	220	5	1.1	0.9;
	13	1	-8.4	28.66	0	3.49	0	1.03045133	-15.2357747	220	5	1.1	0.9;
	14	1	-0	-0	0	6.532711	0	1.03072119	-13.824064	380	5	1.1	0.9;
	15	1	0	-0	0	4.21	0	1.0667787	-19.2599228	220	5	1.1	0.9;
	16	1	704.53	-35.33	0	13.102834	0	1.02027725	-11.0735113	380	5	1.1	0.9;
	17	2	0	0	0	0	0	1.081537	8.47123448	220	5	1.1	0.9;
	18	1	23.73	12.7	0	0.52	0	1.02052168	-15.6077768	220	5	1.1	0.9;
	19	1	38.34	5.6	0	7.64	0	1.03909547	-8.70006533	220	5	1.1	0.9;
	20	1	32.34	12	0	6.1	0	1.04156827	-7.83749105	220	5	1.1	0.9;
	21	2	0	0	0	0	0	1.062805	2.69549319	220	5	1.1	0.9;
	22	1	147.76	32.73	0	8.34	0	1.04704915	-10.1687206	220	5	1.1	0.9;
	23	1	100.8	13.2	0	5.24	0	1.06963884	-24.7890699	220	5	1.1	0.9;
	24	1	370.5	-17	0	9.91	0	1.07477065	-27.4491002	220	5	1.1	0.9;
	25	1	-0	-0	0	2.42	0	1.04298688	-11.6281407	220	5	1.1	0.9;
	26	1	36.84	13.9	0	3.3	0	1.01877099	-19.131305	220	5	1.1	0.9;
	27	1	73.14	21.55	0	8.52	0	1.05633606	-8.40504435	220	5	1.1	0.9;
	28	1	0	-0	0	12.48	0	1.07478041	-25.8204271	220	5	1.1	0.9;
	29	1	39.74	11.8	0	1.44	0	1.01676908	-15.8485805	220	5	1.1	0.9;
	30	1	321.98	84.4	0	1.34	0	1.02689257	-13.1964927	220	5	1.1	0.9;
	31	1	155.6	54.7	0	2.21	0	1.03936156	-24.0996026	220	5	1.1	0.9;
	32	1	105.2	0.1	0	7.36	0	1.04276847	-2.13026857	220	5	1.1	0.9;
	33	1	69.83	15.12	0	2.23	0	1.04593974	-12.5982734	220	5	1.1	0.9;
	34	2	0	0	0	0	0	0.984682	-15.9395526	380	5	1.1	0.9;
	35	1	0	0	0	1.15	0	1.06374197	-19.6505011	220	5	1.1	0.9;
	36	1	119.6	29.6	0	5.34	0	1.03572681	-10.8101763	220	5	1.1	0.9;
	37	1	27.33	11.9	0	1.17	0	1.03558776	-11.8865879	220	5	1.1	0.9;
	38	1	13.82	1.4	0	0.7	0	1.04763462	-14.2060185	220	5	1.1	0.9;
	39	1	103	12	0	0.63	0	1.06703	-32.182615	220	5	1.1	0.9;
	40	1	-0	0	0	4.76	0	1.02999206	-18.3157678	220	5	1.1	0.9;
	41	1	163.1	46.3	0	10.6	0	1.00557326	-15.544371	220	5	1.1	0.9;
	42	1	524.5	43	0	6.85	0	1.01496882	-41.7406595	220	5	1.1	0.9;
	43	2	0	0	0	0	0	1.048249	-5.88561128	220	5	1.1	0.9;
	44	1	197.5	48.3	0	0.71	0	1.04069355	-20.807535	220	5	1.1	0.9;
	45	1	110.4	26.2	0	5.62	0	1.04317462	-23.7996197	220	5	1.1	0.9;
	46	2	0	0	0	0	0	1.055378	0.779111911	380	5	1.1	0.9;
	47	1	65.17	-51.5	0	4.85	0	1.07159744	-23.0996488	220	5	1.1	0.9;
	48	1	56.5	36.29	0	3.08	0	1.02654727	-13.9379503	220	5	1.1	0.9;
	49	1	129.1	7.4	0	0.04	0	1.03979036	-11.4070211	220	5	1.1	0.9;
	50	1	170.89	50.38	0	6.44	0	1.04157184	-26.1860037	220	5	1.1	0.9;
	51	2	0	0	0	0	0	1.05013	-6.09042987	220	5	1.1	0.9;
	52	1	70.68	13.5	0	6.96	0	1.04580039	-6.22180716	220	5	1.1	0.9;
	53	1	123.1	6.5	0	3.25	0	1.04053123	-18.050164	220	5	1.1	0.9;
	54	1	-0	-0	0	68.517663	0	1.04782378	2.54427444	380	5	1.1	0.9;
	55	1	0	-0	0	2.45	0	1.03654488	-11.9384839	220	5	1.1	0.9;
	56	1	0	0	0	29.42	0	1.02173684	-7.97400034	380	5	1.1	0.9;
	57	2	0	0	0	0	0	1.018914	-7.47103875	380	5	1.1	0.9;
	58	1	274.32	5.66	0	13.24	0	1.04622895	-30.4677442	220	5	1.1	0.9;
	59	1	20.52	4	0	2.77	0	1.03645157	-22.5130398	220	5	1.1	0.9;
	60	1	144.4	35.5	0	7.66	0	1.04042601	-14.5170717	220	5	1.1	0.9;
	61	1	-0	0	0	1.96	0	1.04356438	-6.52117009	220	5	1.1	0.9;
	62	1	-0	0	0	0.4	0	1.06329648	-8.78908026	380	5	1.1	0.9;
	63	1	57.46	17.1	0	1.61	0	1.03848366	-7.28592853	220	5	1.1	0.9;
	64	2	0	0	0	0	0	1.075592	-32.9569917	220	5	1.1	0.9;
	65	1	118.5	20.4	0	2.57	0	1.04823743	-26.8063302	220	5	1.1	0.9;
	66	1	0	-0	0	5.15	0	1.07567751	-10.437989	220	5	1.1	0.9;
	67	1	0	-0	0	1.97	0	1.02408805	-20.3265079	220	5	1.1	0.9;
	68	1	16.52	9	0	1.17	0	1.03693924	-22.2616775	220	5	1.1	0.9;
	69	1	0	-0	0	0.32	0	1.05544861	-10.9909465	220	5	1.1	0.9;
	70	2	0	0	0	0	0	1.069817	-46.7688369	220	5	1.1	0.9;
	71	1	0	-0	0	0.67	0	1.0443928	-10.9311725	220	5	1.1	0.9;
	72	2	0	0	0	0	0	1.045397	-15.0375278	220	5	1.1	0.9;
	73	1	67.57	17	0	5.75	0	1.03668122	-8.35358826	220	5	1.1	0.9;
	74	1	140.6	42.6	0	5.71	0	1.04071059	-13.850794	220	5	1.1	0.9;
	75	1	33.24	4.4	0	24.54	0	0.996938254	-12.4444331	380	5	1.1	0.9;
	76	1	150.9	10.4	0	4.77	0	1.07175471	-32.3308645	220	5	1.1	0.9;
	77	1	-0	-0	0	5.67	0	1.02535326	-14.2577594	220	5	1.1	0.9;
	78	2	0	0	0	0	0	1.063876	-10.2968877	220	5	1.1	0.9;
	79	2	0	0	0	0	0	1.048713	-12.4264123	220	5	1.1	0.9;
	80	1	72.88	14.4	0	2.96	0	1.04676751	-24.8038658	220	5	1.1	0.9;
	81	2	0	0	0	0	0	1.051376	-30.1384236	220	5	1.1	0.9;
	82	1	45.32	18.5	0	0.74	0	1.03515015	-13.5339483	220	5	1.1	0.9;
	83	1	258.4	66.7	0	5.87	0	1.03400117	-17.1077453	220	5	1.1	0.9;
	84	1	-0	-0	0	0.6	0	1.04002147	2.88170465	380	5	1.1	0.9;
	85	1	-5.61	-2.79	0	150.93	0	1.03077206	-4.90322638	380	5	1.1	0.9;
	86	1	232.1	89.8	0	0.09	0	0.986375398	-17.9950427	220	5	1.1	0.9;
	87	2	0	0	0	0	0	1.0691	-9.63313601	220	5	1.1	0.9;
	88	1	-0	0	0	5.6	0	1.05781716	-3.13293989	220	5	1.1	0.9;
	89	1	83.99	21.2	0	5.36	0	1.05453163	-25.2366399	220	5	1.1	0.9;
	90	1	135.11	41	0	5.31	0	1.0311508	-24.5882867	220	5	1.1	0.9;
	91	1	-0	-0	0	23.554121	0	0.982114624	-26.9577251	380	5	1.1	0.9;
	92	1	400.3	189.9	0	0.53	0	1.04846959	-3.99711909	220	5	1.1	0.9;
	93	1	0	-0	0	2.83	0	1.05798689	-3.1344481	220	5	1.1	0.9;
	94	1	69.58	16	0	3.03	0	1.07387771	-25.8811332	220	5	1.1	0.9;
	95	2	0	0	0	0	0	1.057884	-28.6366844	220	5	1.1	0.9;
	96	1	-0	-0	0	18.63	0	1.04114095	-23.9538533	220	5	1.1	0.9;
	97	2	0	0	0	0	0	1.017567	-13.3366819	380	5	1.1	0.9;
	98	1	-0	0	0	7.85	0	1.05023294	-20.6501832	220	5	1.1	0.9;
	99	1	152.57	40	0	6.12	0	1.02402527	-10.1763475	220	5	1.1	0.9;
	100	1	343.9	141.9	0	5.55	0	1.03437301	-13.6453726	220	5	1.1	0.9;
	101	2	0	0	0	0	0	1.026368	-13.151619	220	5	1.1	0.9;
	102	2	0	0	0	0	0	1.049411	-6.40402554	220	5	1.1	0.9;
	103	1	-0	-0	0	6.63	0	1.05169999	-5.44501885	220	5	1.1	0.9;
	104	2	0	0	0	0	0	1.035522	-15.0298389	220	5	1.1	0.9;
	105	1	50.56	18	0	0.11	0	1.03516186	-11.9205181	220	5	1.1	0.9;
	106	2	0	0	0	0	0	1.041369	-24.4720798	220	5	1.1	0.9;
	107	1	-0	-0	0	7.26	0	1.05589862	-7.41890698	220	5	1.1	0.9;
	108	1	124.5	29.6	0	15.4	0	1.05674612	-10.6128381	220	5	1.1	0.9;
	109	1	0	-0	0	58.088687	0	1.02752454	0.594465188	380	5	1.1	0.9;
	110	1	0	-0	0	0.22	0	1.05216855	-0.537004054	220	5	1.1	0.9;
	111	2	0	0	0	0	0	1.044097	-1.70729258	380	5	1.1	0.9;
	112	1	-0	-0	0	8.17514	0	1.02440847	-0.718815648	380	5	1.1	0.9;
	113	2	0	0	0	0	0	1.00025	-16.7719685	220	5	1.1	0.9;
	114	2	0	0	0	0	0	1.031745	1.77377272	380	5	1.1	0.9;
	115	1	110	3.4	0	11.95	0	1.04076141	-24.1111071	220	5	1.1	0.9;
	116	1	108.89	-21.76	0	3.72	0	1.05693488	-11.8751627	220	5	1.1	0.9;
	117	1	192.5	78.3	0	6.65	0	1.01724747	-9.91535419	220	5	1.1	0.9;
	118	2	0	0	0	0	0	1.064525	-18.5457781	380	5	1.1	0.9;
	119	1	-0	-0	0	9.1	0	1.06919974	-34.5013527	220	5	1.1	0.9;
	120	1	0	0	0	0.15	0	1.05024712	-15.3565378	220	5	1.1	0.9;
	121	1	82.69	20.1	0	1.36	0	1.07383981	-25.9062783	220	5	1.1	0.9;
	122	1	631.71	-54.16	0	7.534129	0	1.03564973	-14.5362844	380	5	1.1	0.9;
	123	1	-0	-0	0	0.05	0	1.0385547	-9.56389018	220	5	1.1	0.9;
	124	1	125.9	-0.5	0	0.21	0	1.06521441	-7.87651354	220	5	1.1	0.9;
	125	1	34.44	8.5	0	1.11	0	1.04553643	-20.2790427	220	5	1.1	0.9;
	126	1	62.07	14.7	0	4.84	0	1.03559606	-22.5889305	220	5	1.1	0.9;
	127	1	-0	0	0	22.75	0	1.01998602	-20.9482169	220	5	1.1	0.9;
	128	1	-0	0	0	9.46	0	1.04920793	-24.0219355	220	5	1.1	0.9;
	129	1	108.7	-12.15	0	37.11	0	1.06599568	-12.4660503	380	5	1.1	0.9;
	130	1	66.27	13.6	0	0.67	0	1.0443313	-21.0807518	220	5	1.1	0.9;
	131	1	-0	-0	0	108.728602	0	1.06329517	-8.78907568	380	5	1.1	0.9;
	132	1	88.5	16.5	0	146.44	0	1.01558409	-11.2359208	380	5	1.1	0.9;
	133	2	0	0	0	0	0	1.072621	5.86231602	380	5	1.3	0.7;
	134	1	14.71	4.6	0	7.88	0	1.04718921	-24.6900781	220	5	1.1	0.9;
	135	2	0	0	0	0	0	1.074143	-33.1254673	220	5	1.1	0.9;
	136	2	0	0	0	0	0	1.041506	-19.5944953	220	5	1.1	0.9;
	137	1	0	0	0	0.81	0	1.05395532	-12.0560099	220	5	1.1	0.9;
	138	1	44.55	0	0	4.78	0	1.05627799	-4.89098564	220	5	1.1	0.9;
	139	1	201.4	53	0	9.67	0	1.02817573	-29.0377449	220	5	1.1	0.9;
	140	1	-5.91	-2.33	0	30.393595	0	0.990517523	-17.6886919	380	5	1.1	0.9;
	141	1	26.33	5.3	0	4.31	0	1.04093388	-24.0309614	220	5	1.1	0.9;
	142	1	382.5	57.9	0	8.16	0	1.0676568	-32.070425	220	5	1.1	0.9;
	143	1	34.64	-0	0	0.91	0	1.03444349	-18.9929699	220	5	1.1	0.9;
	144	1	31.94	8.8	0	3.79	0	1.03891314	-8.82392167	220	5	1.1	0.9;
	145	2	0	0	0	0	0	1.028946	-3.39620086	380	5	1.1	0.9;
	146	1	-0	0	0	3.79	0	1.04162736	-12.5049363	220	5	1.1	0.9;
	147	1	-0	0	0	0.1	0	1.03558931	-11.8866091	220	5	1.1	0.9;
	148	1	-0	-0	0	4.74	0	1.06150956	-2.96622348	220	5	1.1	0.9;
	149	1	277.86	58.95	0	182.880644	0	1.03864963	-10.1553326	380	5	1.1	0.9;
	150	2	0	0	0	0	0	1.049472	-8.1037254	220	5	1.1	0.9;
	151	1	56.06	18.7	0	4.24	0	1.01005901	-21.1849656	220	5	1.1	0.9;
	152	2	0	0	0	0	0	1.027056	-8.08477186	380	5	1.1	0.9;
	153	1	0	-0	0	0.16	0	1.05018868	-0.933919886	220	5	1.1	0.9;
	154	2	0	0	0	0	0	1.042801	-4.15241483	220	5	1.1	0.9;
	155	1	-0	-0	0	2.05	0	1.03350878	-13.6872889	220	5	1.1	0.9;
	156	2	0	0	0	0	0	1.049879	-6.12591762	220	5	1.1	0.9;
	157	1	29.83	7.3	0	6.49	0	1.07471454	-25.8265023	220	5	1.1	0.9;
	158	1	0	0	0	1.1	0	1.0368215	-8.35549882	220	5	1.1	0.9;
	159	1	190.47	55.03	0	6.7	0	1.00328391	-22.0254222	220	5	1.1	0.9;
	160	1	16.22	2	0	0.71	0	1.03480241	-18.0725133	220	5	1.1	0.9;
	161	1	-0	-0	0	0.05	0	1.04869188	-23.9798451	220	5	1.1	0.9;
	162	1	32.84	-0	0	1.41	0	1.0326376	-5.12841009	220	5	1.1	0.9;
	163	1	-0	-0	0	18.82	0	1.04335223	-20.1153492	220	5	1.1	0.9;
	164	1	12.41	3.9	0	2.23	0	1.03460019	-5.23308767	220	5	1.1	0.9;
	165	1	65.67	24	0	9.95	0	1.0380509	-22.0008553	220	5	1.1	0.9;
	166	1	112.4	13	0	3.99	0	1.05263351	-35.6977271	220	5	1.1	0.9;
	167	1	-0	-0	0	2.3	0	1.07442368	-25.0577628	220	5	1.1	0.9;
	168	1	86.6	23.4	0	0.39	0	1.04090205	-2.32921418	220	5	1.1	0.9;
	169	1	199.4	-19.9	0	6.68	0	1.06676345	-32.4572643	220	5	1.1	0.9;
	170	1	67.57	21.2	0	5.71	0	1.03985663	-4.45516457	220	5	1.1	0.9;
	171	1	30.93	6.6	0	9.09	0	1.05451594	-13.8941004	220	5	1.1	0.9;
	172	1	129.6	13.3	0	13.98	0	1.03897928	-14.7057741	380	5	1.1	0.9;
	173	1	0	0	0	30.637696	0	0.987965429	-14.1652465	380	5	1.1	0.9;
	174	1	114.1	23.5	0	1.08	0	1.05031692	-19.4182781	220	5	1.1	0.9;
	175	1	0	0	0	4.93	0	1.04061406	-10.3344995	220	5	1.1	0.9;
	176	1	0	-0	0	1.72	0	1.03797662	-22.0256884	220	5	1.1	0.9;
	177	1	71.78	17.9	0	1.96	0	1.02264999	-16.0193625	220	5	1.1	0.9;
	178	2	0	0	0	0	0	1.108028	-5.73439556	380	5	1.3	0.7;
	179	1	0	0	0	1.17	0	1.04720708	-10.1702626	220	5	1.1	0.9;
	180	1	348.93	26.47	0	9.36	0	1.02012254	-10.5449463	380	5	1.1	0.9;
	181	2	0	0	0	0	0	1.027102	-8.09424793	380	5	1.1	0.9;
	182	1	-0	0	0	10.73	0	1.03860281	-21.5330875	220	5	1.1	0.9;
	183	1	173	-21.3	0	5.93	0	1.06651783	-49.637309	220	5	1.1	0.9;
	184	1	52.46	2.9	0	0.35	0	1.03264477	-18.350193	220	5	1.1	0.9;
	185	2	0	0	0	0	0	1.03682	-8.36656758	220	5	1.1	0.9;
	186	1	479	99.2	0	10.68	0	1.05180077	-28.2337812	220	5	1.1	0.9;
	187	1	-0	-0	0	4.34	0	1.03824288	-21.9905765	220	5	1.1	0.9;
	188	1	37.94	15.2	0	35.31	0	1.03389203	-21.1788593	380	5	1.1	0.9;
	189	1	0	0	0	0.98	0	1.0693494	-34.5023472	220	5	1.1	0.9;
	190	1	0	0	0	0.59	0	1.02519643	-15.8015745	220	5	1.1	0.9;
	191	2	0	0	0	0	0	1.032899	-13.6831391	220	5	1.1	0.9;
	192	1	-0	-0	0	58.3	0	0.996370442	-13.715906	380	5	1.1	0.9;
	193	2	0	0	0	0	0	1.041045	-7.21954437	220	5	1.1	0.9;
	194	1	-3.29	-1.32	0	190.704588	0	1.03283391	-8.2556789	380	5	1.1	0.9;
	195	1	40.85	14.5	0	0.59	0	1.03986221	-11.5856955	220	5	1.1	0.9;
	196	1	145.2	21.4	0	1.09	0	1.03368125	-22.3615516	220	5	1.1	0.9;
	197	1	30.93	7.6	0	4.69	0	1.07461475	-25.8148148	220	5	1.1	0.9;
	198	1	0	-0	0	2.14	0	1.03792413	-12.4968121	220	5	1.1	0.9;
	199	1	196.7	44.2	0	0.1	0	1.01735138	-18.2845989	220	5	1.1	0.9;
	200	1	11.91	2.9	0	5.27	0	1.03866926	-14.2244807	220	5	1.1	0.9;
	201	1	144.7	20.3	0	6.35	0	1.02268233	-27.4016869	220	5	1.1	0.9;
	202	1	0	-0	0	0.3	0	1.03215143	-11.0907953	220	5	1.1	0.9;
	203	2	0	0	0	0	0	1.04353	-20.6382641	220	5	1.1	0.9;
	204	1	-0	0	0	3.85	0	1.04465003	-23.8386395	220	5	1.1	0.9;
	205	2	0	0	0	0	0	1.047684	-12.5934555	220	5	1.1	0.9;
	206	1	0	0	0	9.49	0	1.07505318	-14.803243	220	5	1.1	0.9;
	207	1	-0	-0	0	3.38	0	1.04294126	-21.3726897	220	5	1.1	0.9;
	208	1	-0	0	0	0.42	0	1.04355165	-20.6387743	220	5	1.1	0.9;
	209	1	-11.03	-5.11	0	29.706803	0	0.988431081	-14.8364546	380	5	1.1	0.9;
	210	2	0	0	0	0	0	1.048068	-15.2952441	220	5	1.1	0.9;
	211	1	0	0	0	4.86	0	1.06560755	-25.3222279	220	5	1.1	0.9;
	212	1	79.59	18.8	0	6.78	0	1.03495359	-22.8415764	220	5	1.1	0.9;
	213	1	-1.85	-1.63	0	31.424588	0	1.03426414	-10.9904672	380	5	1.1	0.9;
	214	1	-0	0	0	37.116157	0	1.02795435	-26.2038378	380	5	1.1	0.9;
	215	1	0	-0	0	1.84	0	1.02536369	-13.8731037	220	5	1.1	0.9;
	216	1	-10.86	-5.93	0	12.54	0	1.04296947	-11.6275306	220	5	1.1	0.9;
	217	1	36.34	15.2	0	0.3	0	1.03522348	-9.48548017	220	5	1.1	0.9;
	218	1	73.58	3.24	0	52.35	0	1.0594168	-14.961306	220	5	1.1	0.9;
	219	1	125.4	45.8	0	0	0	1.03928202	-17.6700864	220	5	1.1	0.9;
	220	1	42.55	8.2	0	2.06	0	1.04220346	-22.9857474	220	5	1.1	0.9;
	221	1	-0	-0	0	1.02	0	1.04048397	-14.5176152	220	5	1.1	0.9;
	222	1	-0	-0	0	7.99	0	1.04313378	-19.9175719	220	5	1.1	0.9;
	223	1	20.42	8.1	0	35.15	0	1.04264022	-16.1970351	380	5	1.1	0.9;
	224	1	0	-0	0	4.96	0	1.02076805	-15.5878363	220	5	1.1	0.9;
	225	1	-0	-0	0	0.95	0	1.0617955	-11.0812884	220	5	1.1	0.9;
	226	1	77.39	24.1	0	2.67	0	1.04226215	-25.4061245	220	5	1.1	0.9;
	227	1	156.9	-4	0	2.48	0	1.03619863	-24.268973	220	5	1.1	0.9;
	228	1	69.08	21.5	0	1.65	0	1.04688323	-24.7063476	220	5	1.1	0.9;
	229	1	0	-0	0	1.38	0	1.04045137	-11.787583	220	5	1.1	0.9;
	230	1	0	-0	0	3.24	0	1.02687047	-13.9157879	220	5	1.1	0.9;
	231	1	28.33	44.8	0	0.51	0	1.03747316	-1.40536452	220	5	1.1	0.9;
	232	1	71.77	13.57	0	3.84	0	1.01583918	-28.7896524	220	5	1.1	0.9;
	233	2	0	0	0	0	0	1.043862	-6.48586635	220	5	1.1	0.9;
	234	1	-0	0	0	0.05	0	1.07705816	-23.8911273	220	5	1.1	0.9;
	235	1	73.78	-0	0	2.69	0	1.03068259	-5.00343832	380	5	1.1	0.9;
	236	1	0	0	0	6.55	0	1.05016673	-20.231267	220	5	1.1	0.9;
	237	1	73.18	22.3	0	8.77	0	1.05010845	-20.6485188	220	5	1.1	0.9;
	238	1	41.95	8.5	0	1.05	0	1.04367492	-10.6654739	220	5	1.1	0.9;
	239	2	0	0	0	0	0	1.028554	1.09138624	380	5	1.1	0.9;
	240	1	95.71	25.9	0	11.38	0	1.04230239	-25.4395771	220	5	1.1	0.9;
	241	1	449.56	245.72	0	94.55	0	1.05447307	3.92917599	380	5	1.1	0.9;
	242	1	3.67	-1.86	0	3.89	0	1.04622745	-20.3110622	220	5	1.1	0.9;
	243	1	-28.13	-0.83	0	0.1	0	1.06182095	-11.0946161	220	5	1.1	0.9;
	244	2	0	0	0	0	0	1.04395	-1.70320591	380	5	1.1	0.9;
	245	1	83.19	25.8	0	0.33	0	1.04724396	-10.1684698	220	5	1.1	0.9;
	246	1	62.16	8	0	2.99	0	1.0389235	-12.6517835	220	5	1.1	0.9;
	247	2	0	0	0	0	0	1.037938	-12.7668459	380	5	1.1	0.9;
	248	1	-15.38	-4.94	0	33.241519	0	1.00745979	-14.223376	380	5	1.1	0.9;
	249	1	25.13	-61.6	0	3.68	0	1.05274644	-29.9195112	220	5	1.1	0.9;
	250	2	0	0	0	0	0	1.062238	2.63027858	220	5	1.1	0.9;
	251	1	-17.18	-4.35	0	44.419365	0	1.0257925	-13.9801795	380	5	1.1	0.9;
	252	1	0	0	0	6.68	0	1.03098457	-31.5931115	220	5	1.1	0.9;
	253	1	-0	0	0	1.86	0	1.04937958	-23.6410045	220	5	1.1	0.9;
	254	1	58.46	6.6	0	10.13	0	1.03657619	-18.6977917	220	5	1.1	0.9;
	255	2	0	0	0	0	0	1.04286	-16.924512	380	5	1.1	0.9;
	256	1	0	-0	0	121.29	0	1.03463891	-3.90816583	380	5	1.1	0.9;
	257	1	-0	-0	0	0.28	0	1.03482282	-30.3301809	380	5	1.1	0.9;
	258	1	333.5	-1.4	0	8.37	0	1.04942262	-45.1036034	220	5	1.1	0.9;
	259	1	73.98	22.5	0	1.15	0	1.04292965	-10.6339139	220	5	1.1	0.9;
	260	1	-0	0	0	1.64	0	1.05105938	-25.6666281	220	5	1.1	0.9;
	261	2	0	0	0	0	0	1.05295	0.279408051	380	5	1.1	0.9;
	262	1	-0.63	-0.83	0	22.810288	0	0.987351809	-6.94537797	380	5	1.1	0.9;
	263	1	-0	-0	0	0.05	0	1.03887822	-21.5351222	220	5	1.1	0.9;
	264	2	0	0	0	0	0	1.046224	-0.661712388	220	5	1.1	0.9;
	265	1	88.92	19.79	0	2.81	0	1.02916991	-7.35231057	220	5	1.1	0.9;
	266	1	108.91	33.7	0	56.24	0	1.06956791	-12.0182521	380	5	1.1	0.9;
	267	1	0	0	0	3.33	0	1.03635562	-21.9835758	220	5	1.1	0.9;
	268	1	0	-0	0	3.02	0	1.03740131	-21.665078	220	5	1.1	0.9;
	269	1	-28.14	-0.76	0	0.1	0	1.06183918	-11.0940625	220	5	1.1	0.9;
	270	2	0	0	0	0	0	1.04762	-12.6029709	220	5	1.1	0.9;
	271	2	0	0	0	0	0	1.054325	-25.4021423	220	5	1.1	0.9;
	272	1	0	0	0	1.53	0	1.02860844	-10.7859758	220	5	1.1	0.9;
	273	1	88.8	-3.2	0	13.63	0	1.06084817	-25.2131325	220	5	1.1	0.9;
	274	1	209.2	23.5	0	6.44	0	1.04508733	-27.7614952	220	5	1.1	0.9;
	275	1	11.71	3.8	0	2.96	0	1.03526756	-15.4193079	220	5	1.1	0.9;
	276	1	-0	-0	0	6.273568	0	1.03079979	-13.8233781	380	5	1.1	0.9;
	277	1	27.33	5	0	6.77	0	1.02979481	-15.8775705	220	5	1.1	0.9;
	278	2	0	0	0	0	0	1.039377	-1.36854771	220	5	1.1	0.9;
	279	1	20.82	-0	0	0.14	0	1.07035596	7.72901015	220	5	1.1	0.9;
	280	1	-0	-0	0	1.18	0	1.02204461	-5.83295271	380	5	1.1	0.9;
	281	1	-0	0	0	2.68	0	1.04924309	-6.41845619	220	5	1.1	0.9;
	282	2	0	0	0	0	0	1.035636	-20.3271009	220	5	1.1	0.9;
	283	1	197.5	-31	0	17.34	0	1.05051135	-24.6846023	220	5	1.1	0.9;
	284	1	192.11	45.5	0	68.04	0	1.00237365	-11.1359444	380	5	1.1	0.9;
	285	1	0	0	0	1.19	0	1.03616843	-17.6312372	220	5	1.1	0.9;
	286	2	0	0	0	0	0	1.064692	-10.2006846	220	5	1.1	0.9;
	287	1	248.7	8.1	0	12.46	0	1.06638041	-49.2924094	220	5	1.1	0.9;
	288	1	210.1	66.2	0	59.36	0	1.07469672	-25.8007814	220	5	1.1	0.9;
	289	1	0	0	0	0.14	0	1.07414443	-33.1254721	220	5	1.1	0.9;
	290	1	177.3	36.4	0	0.7	0	1.04098233	-20.9308702	220	5	1.1	0.9;
	291	1	25.73	7.3	0	2.82	0	1.03329293	-19.6478291	220	5	1.1	0.9;
	292	1	41.45	4.9	0	18.43	0	1.03850405	-18.1822891	220	5	1.1	0.9;
	293	1	72.08	21.3	0	7.19	0	1.04452788	-20.5880371	220	5	1.1	0.9;
	294	1	0	0	0	9.98	0	1.05109893	-23.6483755	220	5	1.1	0.9;
	295	1	3.9	1	0	3.81	0	1.05012193	-24.5173229	220	5	1.1	0.9;
	296	2	0	0	0	0	0	1.03088	1.35286112	380	5	1.1	0.9;
	297	1	14.02	6.5	0	0.09	0	1.03868785	-4.59125623	220	5	1.1	0.9;
	298	1	3.2	1.7	0	0.05	0	1.04351623	-20.6392378	220	5	1.1	0.9;
	299	1	0	0	0	0.14	0	1.03213894	-12.1307194	220	5	1.1	0.9;
	300	2	0	0	0	0	0	1.009914	-0.88676491	380	5	1.1	0.9;
	301	1	-0	0	0	7.338808	0	1.03822292	-9.07400829	380	5	1.1	0.9;
	302	1	120.2	20.5	0	19.94	0	1.04974347	-30.9211614	220	5	1.1	0.9;
	303	1	101.2	2.1	0	38.43	0	1.06576722	-17.0657318	380	5	1.1	0.9;
	304	1	77.19	18.6	0	2.22	0	1.02067316	-14.4372897	220	5	1.1	0.9;
	305	1	0	-0	0	13.94	0	1.05028771	-11.6073146	220	5	1.1	0.9;
	306	1	121.4	20.2	0	16.61	0	1.03501595	-18.0164142	220	5	1.1	0.9;
	307	2	0	0	0	0	0	1.040351	2.93424107	380	5	1.1	0.9;
	308	1	-0	0	0	6.02	0	1.05219255	-11.5361501	220	5	1.1	0.9;
	309	1	199.86	56.93	0	46.83	0	1.04314584	-25.3221586	220	5	1.1	0.9;
	310	1	-5.64	-2.84	0	34.582195	0	1.01668778	-7.57025583	380	5	1.1	0.9;
	311	1	-0	-0	0	38.32	0	1.03030495	-5.16562621	380	5	1.1	0.9;
	312	1	79.09	18.7	0	10.8	0	1.03596132	-22.5613353	220	5	1.1	0.9;
	313	1	0	0	0	56.686515	0	1.01657039	-7.85685746	380	5	1.1	0.9;
	314	1	107.3	14.2	0	20.23	0	1.03968846	-15.1737875	220	5	1.1	0.9;
	315	1	0	-0	0	7.63	0	1.05044247	-7.74274327	220	5	1.1	0.9;
	316	1	63.67	20.2	0	6.13	0	1.03879704	-4.58140063	220	5	1.1	0.9;
	317	1	35.66	-9.39	0	7.89	0	1.0483959	-28.2476853	220	5	1.1	0.9;
	318	1	20.92	7.7	0	1.21	0	1.05288706	-14.1422712	220	5	1.1	0.9;
	319	1	0	0	0	61.795782	0	1.01195021	-12.7454618	380	5	1.1	0.9;
	320	2	0	0	0	0	0	1.07333	-28.0952815	220	5	1.1	0.9;
	321	1	0	0	0	32.849821	0	0.995869782	-15.6887906	380	5	1.1	0.9;
	322	1	-0	0	0	0.18	0	1.04776089	-6.00542041	220	5	1.1	0.9;
	323	2	0	0	0	0	0	1.035528	-5.79049414	380	5	1.1	0.9;
	324	1	74.98	26.9	0	2.96	0	1.05111293	-13.3656948	220	5	1.1	0.9;
	325	1	0	-0	0	2.91	0	1.06296778	-12.5531346	220	5	1.1	0.9;
	326	1	0	-0	0	1.71	0	1.0364977	-21.9848063	220	5	1.1	0.9;
	327	1	0	0	0	0.45	0	1.04939141	1.32932176	220	5	1.1	0.9;
	328	1	-0	-0	0	2.76	0	1.02490921	-18.6019097	220	5	1.1	0.9;
	329	1	100.7	-4.2	0	1.57	0	1.0680232	-47.6083825	220	5	1.1	0.9;
	330	1	141.3	32.4	0	7.29	0	1.07431461	-25.8399612	220	5	1.1	0.9;
	331	2	0	0	0	0	0	1.05324	-23.4551589	220	5	1.1	0.9;
	332	1	208.88	60.8	0	6.68	0	1.02320096	-7.92077838	220	5	1.1	0.9;
	333	1	170.9	39	0	11.25	0	1.03451316	-8.36330964	220	5	1.1	0.9;
	334	2	0	0	0	0	0	1.072528	-10.1746635	220	5	1.1	0.9;
	335	1	0	-0	0	7.94	0	1.03746097	-15.2866988	220	5	1.1	0.9;
	336	1	88.7	-0.1	0	2.83	0	1.05848366	-25.4462629	220	5	1.1	0.9;
	337	1	32.04	6.6	0	0.44	0	1.03859211	-23.5908494	220	5	1.1	0.9;
	338	1	0	-0	0	0.41	0	1.04666157	-20.8204933	220	5	1.1	0.9;
	339	1	39.64	20.9	0	0.65	0	1.06106878	-8.92235301	220	5	1.1	0.9;
	340	1	114.5	25.2	0	17.57	0	1.04721987	-24.6854599	220	5	1.1	0.9;
	341	1	-0	0	0	0.4	0	1.01750401	-13.766689	220	5	1.1	0.9;
	342	1	103.4	27	0	1.41	0	1.04560362	-29.2945934	220	5	1.1	0.9;
	343	1	96.91	13.9	0	3.98	0	1.03961463	-11.9838316	220	5	1.1	0.9;
	344	1	-0	0	0	3.28	0	1.06510909	-25.7038262	220	5	1.1	0.9;
	345	2	0	0	0	0	0	1.024884	-9.62640499	380	5	1.1	0.9;
	346	1	215.5	31.3	0	14.23	0	1.04458322	-20.8723306	220	5	1.1	0.9;
	347	1	16.9	3.85	0	25.09	0	1.05254268	-29.1995573	220	5	1.1	0.9;
	348	1	37.94	15.4	0	117.386167	0	1.03352764	-21.6834168	380	5	1.1	0.9;
	349	1	0	-0	0	14.490904	0	0.991234284	-16.9809101	380	5	1.1	0.9;
	350	1	101.7	17.6	0	13.14	0	1.03667162	-14.3825748	220	5	1.1	0.9;
	351	1	20.82	0	0	0.13	0	1.07049727	7.84065802	220	5	1.1	0.9;
	352	1	0	0	0	1.69	0	1.04869161	-23.9798425	220	5	1.1	0.9;
	353	2	0	0	0	0	0	1.047766	-23.207794	220	5	1.1	0.9;
	354	1	44.55	16.8	0	2.31	0	1.03497457	-21.9145604	220	5	1.1	0.9;
	355	2	0	0	0	0	0	1.041186	-9.366211	220	5	1.1	0.9;
	356	2	0	0	0	0	0	1.037687	-13.340308	220	5	1.1	0.9;
	357	1	-0	0	0	6.21	0	1.04138043	-11.414867	220	5	1.1	0.9;
	358	1	291.2	35.4	0	21.87	0	1.0310265	-31.5080931	220	5	1.1	0.9;
	359	1	-0	0	0	0.64	0	1.04663321	-20.8201924	220	5	1.1	0.9;
	360	2	0	0	0	0	0	1.06157	8.02454173	380	5	1.1	0.9;
	361	1	30.73	9.6	0	2.75	0	1.04005922	-24.1282798	220	5	1.1	0.9;
	362	1	132	26	0	27.18	0	1.00650854	-12.9529563	380	5	1.1	0.9;
	363	1	0	-0	0	11.65	0	1.01811725	-13.6206624	220	5	1.1	0.9;
	364	2	0	0	0	0	0	1.048132	-5.93822313	220	5	1.1	0.9;
	365	1	0	0	0	0.21	0	1.06557378	-7.75562031	220	5	1.1	0.9;
	366	1	-2.65	-1.17	0	65.673108	0	1.00818065	-2.36930632	380	5	1.1	0.9;
	367	2	0	0	0	0	0	1.042777	-17.6373991	220	5	1.1	0.9;
	368	2	0	0	0	0	0	1.049366	1.329634	220	5	1.1	0.9;
	369	1	-0	0	0	2.09	0	1.01281567	-20.9741131	220	5	1.1	0.9;
	370	1	115.87	29.41	0	7.92	0	1.02849654	-11.6705426	220	5	1.1	0.9;
	371	1	-5.29	-1.91	0	42.622979	0	0.999295127	-11.0381663	380	5	1.1	0.9;
	372	1	238.45	46.86	0	125.534496	0	1.04459613	-19.2563424	380	5	1.1	0.9;
	373	1	59.77	16.7	0	0.64	0	1.04398994	-4.13295797	220	5	1.1	0.9;
	374	1	51.56	2.1	0	0.18	0	1.03763008	-1.88909173	220	5	1.1	0.9;
	375	2	0	0	0	0	0	1.049384	-6.38975416	220	5	1.1	0.9;
	376	1	159.27	38.31	0	2.18	0	1.02333127	-16.1811643	220	5	1.1	0.9;
	377	1	52.86	13	0	6.04	0	1.04697733	-4.20381397	220	5	1.1	0.9;
	378	1	62.97	17.4	0	0.3	0	1.04159645	-2.2515591	220	5	1.1	0.9;
	379	1	253.77	84.6	0	20.71	0	1.03096195	-14.7818353	220	5	1.1	0.9;
	380	1	14.72	5.4	0	0.72	0	1.03313351	-10.7069372	220	5	1.1	0.9;
	381	1	25.63	12.7	0	8.42	0	1.04054258	-14.700472	220	5	1.1	0.9;
	382	2	0	0	0	0	0	1.038821	-13.2207441	220	5	1.1	0.9;
	383	2	0	0	0	0	0	1.061488	7.98826058	380	5	1.1	0.9;
	384	1	203.1	65.2	0	0.64	0	1.04552377	-24.0437852	220	5	1.1	0.9;
	385	1	0	0	0	1.72	0	1.04212557	-10.8603098	220	5	1.1	0.9;
	386	1	0	0	0	0.19	0	1.07364619	-24.3090294	220	5	1.1	0.9;
	387	2	0	0	0	0	0	1.036517	-22.5065279	220	5	1.1	0.9;
	388	1	207.1	50.4	0	4.93	0	1.01931742	-18.0651788	220	5	1.1	0.9;
	389	1	-0.72	0	0	69.582294	0	1.03430655	-22.4451508	380	5	1.1	0.9;
	390	1	123.24	23.65	0	6.44	0	1.03570042	-14.6282941	220	5	1.1	0.9;
	391	1	0	0	0	0.45	0	1.03408681	-2.20611938	220	5	1.1	0.9;
	392	1	16.22	8.9	0	2.2	0	1.03834339	-20.5128296	220	5	1.1	0.9;
	393	1	151.7	27.6	0	6.49	0	1.04324798	-25.1610985	220	5	1.1	0.9;
	394	2	0	0	0	0	0	1.035384	-15.0407765	220	5	1.1	0.9;
	395	1	-0	0	0	10.040547	0	0.984019137	-22.6222514	380	5	1.1	0.9;
	396	1	85.59	20.72	0	142.79	0	1.01306102	-9.5693992	380	5	1.1	0.9;
	397	1	55.56	26.5	0	1.09	0	1.04992448	-30.2636721	220	5	1.1	0.9;
	398	1	34.54	8.6	0	5.05	0	1.04216854	-21.4516511	220	5	1.1	0.9;
	399	1	-0	0	0	3.72	0	1.05200265	-12.8410121	220	5	1.1	0.9;
	400	1	85.39	14.3	0	0.35	0	1.04803205	-9.5474966	220	5	1.1	0.9;
	401	1	-28.13	-0.81	0	0.1	0	1.06183982	-11.0937892	220	5	1.1	0.9;
	402	2	0	0	0	0	0	1.073795	6.92906369	380	5	1.3	0.7;
	403	1	0	-0	0	0.39	0	1.03502079	-18.0164539	220	5	1.1	0.9;
	404	1	-0	-0	0	1.94	0	1.07029652	-31.8356888	220	5	1.1	0.9;
	405	2	0	0	0	0	0	1.042226	-4.28747094	220	5	1.1	0.9;
	406	2	0	0	0	0	0	1.05396	-12.0321677	220	5	1.1	0.9;
	407	1	0	-0	0	12.17	0	1.04102239	-24.0119291	220	5	1.1	0.9;
	408	1	-0	-0	0	0.39	0	1.05048777	0.330530823	220	5	1.1	0.9;
	409	1	25.33	14.2	0	4.05	0	1.03654988	-22.4831879	220	5	1.1	0.9;
	410	2	0	0	0	0	0	1.053944	0.125237304	380	5	1.1	0.9;
	411	2	0	0	0	0	0	1.08248	-25.9025308	220	5	1.1	0.9;
	412	2	0	0	0	0	0	1.043712	-6.49585176	220	5	1.1	0.9;
	413	1	40.14	8.8	0	0.82	0	1.05066296	-3.45147071	220	5	1.1	0.9;
	414	1	453.23	139.16	0	25.583218	0	0.997928689	-7.35737953	380	5	1.1	0.9;
	415	1	-0	-0	0	4.76	0	1.03306747	-18.2352467	220	5	1.1	0.9;
	416	1	-12.33	-2.65	0	69.323028	0	1.04483618	-10.3555902	380	5	1.1	0.9;
	417	1	37.73	13.84	0	0.09	0	1.02840269	-10.8047186	220	5	1.1	0.9;
	418	1	-0	0	0	4.21	0	1.03788513	-7.11283944	220	5	1.1	0.9;
	419	2	0	0	0	0	0	1.063841	-10.4906916	220	5	1.1	0.9;
	420	1	29.93	-0	0	0.46	0	1.04184271	-14.3472648	220	5	1.1	0.9;
	421	2	0	0	0	0	0	1.057626	-10.8838502	220	5	1.1	0.9;
	422	2	0	0	0	0	0	1.055151	-13.5985298	220	5	1.1	0.9;
	423	1	-0	0	0	0.22	0	1.01368194	-20.7504344	220	5	1.1	0.9;
	424	1	-0	0	0	3.2	0	1.05018563	-0.933891467	220	5	1.1	0.9;
	425	1	56.76	13.4	0	1.18	0	1.03584472	-22.5691154	220	5	1.1	0.9;
	426	2	0	0	0	0	0	1.059072	-22.9696087	220	5	1.1	0.9;
	427	1	-0	0	0	2.87	0	1.04051486	-1.33236203	220	5	1.1	0.9;
	428	1	0	0	0	53.25003	0	1.02383862	-27.8625018	380	5	1.1	0.9;
	429	1	-0	0	0	32.049116	0	0.991576719	-17.8246633	380	5	1.1	0.9;
	430	1	19.92	7.4	0	17.28	0	1.05757298	-32.8238639	220	5	1.1	0.9;
	431	1	0	-0	0	92.38	0	1.07452341	-25.8364503	220	5	1.1	0.9;
	432	2	0	0	0	0	0	1.047695	-12.5881831	220	5	1.1	0.9;
	433	1	230.7	19.3	0	4.56	0	1.04360866	-31.7991741	220	5	1.1	0.9;
	434	2	0	0	0	0	0	1.051149	-6.25108674	220	5	1.1	0.9;
	435	1	0	-0	0	137.29	0	1.0054204	-6.90774953	380	5	1.1	0.9;
	436	1	103	28.7	0	2.88	0	1.01671999	-13.8650509	220	5	1.1	0.9;
	437	1	-0	-0	0	11.03	0	1.05044837	-4.68724049	220	5	1.1	0.9;
	438	1	159.9	53.2	0	7.99	0	1.04121453	-23.896834	220	5	1.1	0.9;
	439	1	0	-0	0	0.19	0	1.04697348	-16.5312007	220	5	1.1	0.9;
	440	1	112.51	16.51	0	1.63	0	1.04452077	-8.43665964	220	5	1.1	0.9;
	441	1	97.82	20.59	0	6.67	0	1.03835539	-14.5421285	220	5	1.1	0.9;
	442	1	-0	0	0	0.42	0	1.06329695	-8.7890829	380	5	1.1	0.9;
	443	1	-0	0	0	1.68	0	1.07540657	-14.8060835	220	5	1.1	0.9;
	444	2	0	0	0	0	0	1.053607	-8.09866118	220	5	1.1	0.9;
	445	1	0	-0	0	3.9	0	1.05189219	-3.2605903	220	5	1.1	0.9;
	446	1	2.2	1.1	0	0.67	0	1.04957477	-5.08979681	220	5	1.1	0.9;
	447	2	0	0	0	0	0	1.041705	-12.4748404	220	5	1.1	0.9;
	448	1	0	-0	0	1.37	0	1.03683588	-22.2620333	220	5	1.1	0.9;
	449	1	74.38	8.8	0	6.1	0	1.04258618	-11.2469888	220	5	1.1	0.9;
	450	1	149	19.8	0	23.89	0	1.03845483	-14.5009734	380	5	1.1	0.9;
	451	2	0	0	0	0	0	1.030654	1.26456852	380	5	1.1	0.9;
	452	1	116.93	33.6	0	3.35	0	1.04683356	-24.7275241	220	5	1.1	0.9;
	453	1	221	146.8	0	8.35	0	1.04856961	-6.06995897	220	5	1.1	0.9;
	454	1	29.33	5.6	0	6.56	0	1.04501076	-20.8018755	220	5	1.1	0.9;
	455	1	0	0	0	0	0	1.0311508	-24.5882867	220	5	1.1	0.9;
	456	1	89.6	22.7	0	4.06	0	1.03543318	-9.46890652	220	5	1.1	0.9;
	457	1	0	-0	0	4.27	0	1.01367551	-20.750389	220	5	1.1	0.9;
	458	1	0	-0	0	2.83	0	1.04471581	-7.00713923	220	5	1.1	0.9;
	459	1	92.9	27.7	0	5.22	0	1.05067541	-30.2360182	220	5	1.1	0.9;
	460	1	30.33	10.5	0	0.33	0	1.0206702	-16.3862893	220	5	1.1	0.9;
	461	1	0	0	0	75.076038	0	0.9989575	-14.6549961	380	5	1.1	0.9;
	462	1	567.97	130.73	0	1.09	0	1.06837629	-27.1764983	220	5	1.1	0.9;
	463	1	64.67	24.5	0	1.46	0	1.0672053	-27.2330564	220	5	1.1	0.9;
	464	1	-0	0	0	0	0	1.05734944	2.54427444	220	5	1.1	0.9;
	465	2	0	0	0	0	0	1.071964	-11.2109363	220	5	1.1	0.9;
	466	1	242.16	73.64	0	12.79	0	1.03164286	-7.06445224	220	5	1.1	0.9;
	467	1	104.78	20.92	0	6.17	0	1.02118865	-16.5828422	220	5	1.1	0.9;
	468	2	0	0	0	0	0	1.065372	-8.76531132	220	5	1.1	0.9;
	469	2	0	0	0	0	0	1.023117	-15.3805733	220	5	1.1	0.9;
	470	1	0	-0	0	0.03	0	1.06510921	-25.7038271	220	5	1.1	0.9;
	471	1	860.95	-182.67	0	18.309116	0	0.993006845	-41.0992601	380	5	1.1	0.9;
	472	1	184.91	32.8	0	8.35	0	1.03908797	-17.1883996	220	5	1.1	0.9;
	473	2	0	0	0	0	0	1.055515	-11.5091078	220	5	1.1	0.9;
	474	1	14.12	7.7	0	1.42	0	1.04029916	-20.8478112	220	5	1.1	0.9;
	475	1	107	34.7	0	1.54	0	1.04241961	-12.4322838	220	5	1.1	0.9;
	476	1	127.8	15.2	0	9.34	0	1.04081011	-11.8188059	220	5	1.1	0.9;
	477	1	86.2	19.9	0	5.43	0	1.0361687	-22.5520627	220	5	1.1	0.9;
	478	1	8.51	3.2	0	0.96	0	1.01709449	-10.0490049	220	5	1.1	0.9;
	479	2	0	0	0	0	0	1.041982	-0.785806959	380	5	1.1	0.9;
	480	2	0	0	0	0	0	1.028507	-10.9835889	220	5	1.1	0.9;
	481	1	76.38	24.8	0	3.24	0	1.04778205	-11.6312486	220	5	1.1	0.9;
	482	1	251.3	42.6	0	5.47	0	1.02520274	-13.8709622	220	5	1.1	0.9;
	483	1	-5.06	-1.84	0	187.327025	0	1.05625005	-11.2860331	380	5	1.1	0.9;
	484	2	0	0	0	0	0	1.050305	-0.945617862	220	5	1.1	0.9;
	485	1	132	27	0	4.66	0	1.03028546	-17.3978699	220	5	1.1	0.9;
	486	1	-0	0	0	1.18	0	0.990529445	-17.6887528	380	5	1.1	0.9;
	487	1	20.9	-171.5	0	0.21	0	1.08051634	8.00415319	220	5	1.1	0.9;
	488	1	84.19	17.3	0	6.2	0	1.05496955	-10.8155496	220	5	1.1	0.9;