function mpc = case2869pegase_SE
%CASE2869PEGASE_SE

%% MATPOWER Case Format : Version 2
mpc.version = '2';

%%-----  Power Flow Data  -----%%
%% system MVA base
mpc.baseMVA = 100;

%% bus data
%	bus_i	type	Pd	Qd	Gs	Bs	area	Vm	Va	baseKV	zone	Vmax	Vmin
mpc.bus = [
	1	1	151	48.8	0	4.69	0	1.01597693	-21.6805675	220	5	1.1	0.9;
	2	1	171.41	23.4	0	2.1	0	1.02599876	-6.89137794	220	5	1.1	0.9;
	3	1	134	24.7	0	12.44	0	1.03787976	-23.7586804	220	5	1.1	0.9;
	4	1	59.67	26.7	0	12.84	0	1.02427949	-48.1543485	220	4	1.1	0.9;
	5	1	161.2	39.3	0	30.71	0	1.03553759	-21.4052594	220	5	1.1	0.9;
	6	1	0	-0	0	0.85	0	1.03295295	-18.0980105	220	5	1.1	0.9;
	7	1	167.3	54.8	0	110.54	0	1.03285461	-3.22663392	380	5	1.1	0.9;
	8	1	152.9	49.4	0	27.65	0	0.997907866	-13.5726852	380	5	1.1	0.9;
	9	2	0	0	0	0	0	1.006206	-42.2819118	220	4	1.1	0.9;
	10	2	0	0	0	0	0	1.031909	-37.954584	220	4	1.1	0.9;
	11	1	42.75	12.8	0	13.3	0	1.02847711	27.5203391	220	8	1.1	0.9;
	12	2	0	0	0	0	0	1.005551	-37.5892686	150	10	1.1	0.9;
	13	1	20.82	7.9	0	26.89	0	1.04740384	-48.3901489	380	4	1.1	0.9;
	14	1	-0	0	0	7.27	0	1.04517894	-21.6542903	220	5	1.1	0.9;
	15	2	0	0	0	0	0	1.01198	-47.4308908	220	4	1.1	0.9;
	16	1	127.6	31.8	0	20.51	0	1.01380906	1.66347931	150	8	1.1	0.9;
	17	1	48.65	16.1	0	7.14	0	1.06053672	-9.07717356	220	5	1.1	0.9;
	18	1	0	0	0	2.31	0	0.996663482	-15.539313	380	5	1.1	0.9;
	19	1	119.2	20.7	0	3.31	0	1.03161714	-23.5817998	220	5	1.1	0.9;
	20	1	62.87	20.5	0	1.15	0	1.01238607	0.446867854	150	8	1.1	0.9;
	21	1	126.3	42.4	0	55.24	0	1.03801589	4.77550344	150	8	1.1	0.9;
	22	1	6.91	-4.6	0	5.75	0	1.00970737	-40.4609361	220	4	1.1	0.9;
	23	1	38.74	6.1	0	1.17	0	1.02442451	-52.4251689	220	4	1.1	0.9;
	24	1	22.13	10.7	0	14.21	0	1.02853899	27.5299571	220	8	1.1	0.9;
	25	1	-0	-0	0	0.73	0	1.01468888	-49.6971559	220	4	1.1	0.9;
	26	1	0	0	0.199111	4.530599	0	0.995990632	-2.01355332	380	2	1.1	0.9;
	27	1	363.25	115.39	0	3.95	0	1.04295741	-27.2303335	220	5	1.1	0.9;
	28	1	-0	0	0	0.02	0	1.01179011	2.75940697	150	8	1.1	0.9;
	29	1	-8.4	28.66	0	3.49	0	1.03481007	-15.4570085	220	5	1.1	0.9;
	30	1	-0	-0	0	6.532711	0	1.03054623	-13.8395094	380	5	1.1	0.9;
	31	1	0	-0	0	4.21	0	1.06556549	-19.206116	220	5	1.1	0.9;
	32	1	704.53	-35.33	0	13.102834	0	1.02192114	-11.2783497	380	5	1.1	0.9;
	33	2	0	0	0	0	0	1.079291	8.45462644	220	5	1.1	0.9;
	34	1	23.73	12.7	0	0.52	0	1.02017515	-15.4797791	220	5	1.1	0.9;
	35	1	-0	0	0.135375	47.750675	0	1.06297633	-46.5928137	380	10	1.1	0.9;
	36	1	0	-0	0	21.39	0	1.067846	-43.2572556	380	1	1.1	0.9;
	37	1	38.14	12.5	0	6.28	0	1.0197318	3.22374732	150	8	1.1	0.9;
	38	1	-75.38	7.8	0	29.9	0	1.07115948	-41.2789539	380	10	1.1	0.9;
	39	1	-764.34	66.91	0	33.47	0	1.00378007	18.9889101	380	8	1.1	0.9;
	40	1	0	0	0	4.14	0	1.02917977	18.9877001	220	8	1.1	0.9;
	41	1	0	0	0	0	0	1.01418949	6.0007325	150	8	1.1	0.9;
	42	1	38.34	5.6	0	7.64	0	1.04216934	-8.80549817	220	5	1.1	0.9;
	43	1	32.34	12	0	6.1	0	1.04168656	-7.89687518	220	5	1.1	0.9;
	44	2	0	0	0	0	0	1.062067	2.64567891	220	5	1.1	0.9;
	45	1	147.76	32.73	0	8.34	0	1.04260045	-10.4676853	220	5	1.1	0.9;
	46	1	0	-0	0	5.17	0	1.01600837	0.691258275	150	8	1.1	0.9;
	47	1	100.8	13.2	0	5.24	0	1.06377143	-24.7700698	220	5	1.1	0.9;
	48	1	111.7	10.96	0	4.22	0	1.01704326	-46.5080226	220	4	1.1	0.9;
	49	1	370.5	-17	0	9.91	0	1.07336509	-27.4462581	220	5	1.1	0.9;
	50	1	94.9	36.2	0	16.46	0	0.973373626	-42.6308832	220	10	1.1	0.9;
	51	2	0	0	0	0	0	1.048817	-49.1895358	380	4	1.1	0.9;
	52	1	-0	-0	0	2.42	0	1.04385077	-11.2713174	220	5	1.1	0.9;
	53	1	36.84	13.9	0	3.3	0	1.01828772	-19.1526892	220	5	1.1	0.9;
	54	2	0	0	0	0	0	1.029584	14.378265	150	8	1.1	0.9;
	55	1	73.14	21.55	0	8.52	0	1.05318992	-8.50311513	220	5	1.1	0.9;
	56	1	0	-0	0	12.48	0	1.07423707	-25.7598076	220	5	1.1	0.9;
	57	1	39.74	11.8	0	1.44	0	1.01590126	-15.7549161	220	5	1.1	0.9;
	58	1	86.8	28.4	0	1.34	0	1.01183769	1.92681916	150	8	1.1	0.9;
	59	2	0	0	0	0	0	1.024675	-50.6529557	220	4	1.1	0.9;
	60	1	46.15	18.2	0	1.29	0	1.00914883	6.60398434	150	8	1.1	0.9;
	61	1	321.98	84.4	0	1.34	0	1.02784251	-12.8158796	220	5	1.1	0.9;
	62	1	75.28	19.2	0	1.9	0	1.0325242	14.7689675	110	8	1.1	0.9;
	63	1	155.6	54.7	0	2.21	0	1.03856289	-24.1374062	220	5	1.1	0.9;
	64	1	105.2	0.1	0	7.36	0	1.03492754	-2.40617295	220	5	1.1	0.9;
	65	1	69.83	15.12	0	2.23	0	1.04250006	-13.0222012	220	5	1.1	0.9;
	66	2	0	0	0	0	0	0.996091	-16.1648392	380	5	1.1	0.9;
	67	1	0	0	0	1.15	0	1.0625275	-19.5976231	220	5	1.1	0.9;
	68	1	-23.43	57.4	0	0	0	1.04447674	-6.44350307	150	2	1.1	0.9;
	69	1	152.07	22.52	0	7.87	0	1.00700086	-46.2644175	220	4	1.1	0.9;
	70	1	-0.13	-1	0	0	0	1.01976772	24.3144198	110	8	1.1	0.9;
	71	1	45.85	7	0	1.05	0	1.02885493	-53.4704744	220	4	1.1	0.9;
	72	1	0	-0.01	0	13.49	0	1.01715298	18.3622095	150	8	1.1	0.9;
	73	1	-0	-0	0	0.68	0	1.01893476	6.49301961	150	8	1.1	0.9;
	74	1	-0	-0	0	26.3	0	1.00539528	-42.2799601	220	4	1.1	0.9;
	75	1	113.9	24.5	0	6.72	0	1.03409217	-45.5514823	220	4	1.1	0.9;
	76	1	-0	0	0	1.29	0	1.05686021	-45.0706322	380	10	1.1	0.9;
	77	1	38.74	9	0	0.57	0	1.01505052	-46.3077713	220	4	1.1	0.9;
	78	1	0	-0	0	140.96	0	1.05975078	-41.7927632	380	4	1.1	0.9;
	79	1	103.8	2.7	0	3.33	0	1.01627504	-50.8873472	220	4	1.1	0.9;
	80	1	-0.13	-1	0	0	0	1.04665503	27.6802425	220	8	1.1	0.9;
	81	1	96.7	26.8	0	0	0	1.04001127	-6.76871875	150	2	1.1	0.9;
	82	1	102.1	25.3	0	1.11	0	1.01342218	2.71942187	150	8	1.1	0.9;
	83	1	119.6	29.6	0	5.34	0	1.03311902	-10.8678913	220	5	1.1	0.9;
	84	1	-0	-0	0	18.07	0	1.03506245	14.5979502	380	8	1.1	0.9;
	85	1	27.33	11.9	0	1.17	0	1.03663693	-11.4991546	220	5	1.1	0.9;
	86	1	191.2	-3.4	0	19.21	0	1.02394001	-48.2064735	220	4	1.1	0.9;
	87	1	13.82	1.4	0	0.7	0	1.04761128	-14.566531	220	5	1.1	0.9;
	88	1	23.73	9.4	0	1.45	0	1.02594734	6.01795741	150	8	1.1	0.9;
	89	2	0	0	0	0	0	1.046197	-45.6601994	380	4	1.1	0.9;
	90	1	2.2	0.5	0	0.21	0	0.994430235	-53.6870429	150	10	1.1	0.9;
	91	1	103	12	0	0.63	0	1.06585917	-32.1964904	220	5	1.1	0.9;
	92	1	-0	0	0	4.76	0	1.02963235	-18.2302323	220	5	1.1	0.9;
	93	1	42.05	17.2	0	1.31	0	1.00332679	0.356131086	150	8	1.1	0.9;
	94	1	-0.16	-2.91	0	0.43	0	1.05576176	13.053606	110	8	1.1	0.9;
	95	1	163.1	46.3	0	10.6	0	1.00109905	-15.7117627	220	5	1.1	0.9;
	96	1	-0	-0	0	2.13	0	1.02685837	-35.8303969	220	10	1.1	0.9;
	97	1	-0	-0	0.045946	-1.82203	0	1.01774021	4.70062681	380	2	1.1	0.9;
	98	1	303.8	85.4	0	3.63	0	0.963930206	-44.1589963	220	10	1.1	0.9;
	99	1	0	0	0	0	0	1.04678796	27.727126	220	8	1.1	0.9;
	100	1	524.5	43	0	6.85	0	1.01322082	-41.7993318	220	5	1.1	0.9;
	101	2	0	0	0	0	0	1.049578	-6.03113281	220	5	1.1	0.9;
	102	1	372.8	147.5	0	27.73	0	1.02295853	-0.121073076	150	8	1.1	0.9;
	103	1	197.5	48.3	0	0.71	0	1.0394057	-20.8366393	220	5	1.1	0.9;
	104	1	-0	0	0	15.15	0	1.04737297	9.84295378	150	8	1.1	0.9;
	105	1	110.4	26.2	0	5.62	0	1.04293513	-23.7536264	220	5	1.1	0.9;
	106	1	-0.15	-1.93	0	0	0	1.0280358	19.7182393	220	8	1.1	0.9;
	107	2	0	0	0	0	0	1.054691	0.893065384	380	5	1.1	0.9;
	108	1	35.54	11.5	0	3.65	0	1.04850811	12.7736205	110	8	1.1	0.9;
	109	1	65.17	-51.5	0	4.85	0	1.07107553	-23.0364562	220	5	1.1	0.9;
	110	1	-0	0	0	3.78	0	1.04519824	14.7650801	220	8	1.1	0.9;
	111	1	56.76	23.2	0	0.49	0	1.00062272	0.1646931	150	8	1.1	0.9;
	112	1	-0.18	-1	0	0	0	1.02163394	11.7214466	150	8	1.1	0.9;
	113	1	-95.71	-2.8	0	7.25	0	1.00431439	-32.6431596	220	10	1.1	0.9;
	114	1	-0	-0	0	105.84	0	1.0450629	-49.0782389	380	4	1.1	0.9;
	115	1	-0.19	-4.38	0	0	0	1.04047696	7.98983546	150	8	1.1	0.9;
	116	2	0	0	0	0	0	1.020856	-40.5947532	150	10	1.1	0.9;
	117	1	134.1	34.2	0	0.75	0	1.00605857	0.379243211	150	8	1.1	0.9;
	118	1	-0	-0	0	7.85	0	1.03417177	15.8903967	380	8	1.1	0.9;
	119	1	56.5	36.29	0	3.08	0	1.028209	-13.9911148	220	5	1.1	0.9;
	120	1	129.1	7.4	0	0.04	0	1.04148467	-10.993487	220	5	1.1	0.9;
	121	1	170.89	50.38	0	6.44	0	1.03544172	-26.3760277	220	5	1.1	0.9;
	122	2	0	0	0	0	0	1.052152	-6.01392279	220	5	1.1	0.9;
	123	1	4.71	0.7	0	11.39	0	1.02939997	-51.4658648	220	4	1.1	0.9;
	124	1	70.68	13.5	0	6.96	0	1.04178694	-6.66223624	220	5	1.1	0.9;
	125	1	0	0	0	0	0	1.04981528	19.1707301	380	8	1.1	0.9;
	126	1	-0	0	0	2.72	0	1.00775313	8.6768618	380	1	1.1	0.9;
	127	1	123.1	6.5	0	3.25	0	1.04058504	-18.0736921	220	5	1.1	0.9;
	128	1	-0	0	0	1.24	0	1.07785506	-35.3828652	380	1	1.1	0.9;
	129	1	26.93	-22.4	0	4.95	0	1.01945382	-48.1081207	220	4	1.1	0.9;
	130	1	-0	-0	0	68.517663	0	1.04622607	2.50560702	380	5	1.1	0.9;
	131	2	0	0	0	0	0	1.029422	-35.9941484	220	4	1.1	0.9;
	132	1	-0	0	0.199768	27.888516	0	1.03716922	-51.6668378	380	10	1.1	0.9;
	133	2	0	0	0	0	0	1.013689	-45.9309404	220	4	1.1	0.9;
	134	1	0	-0	0	2.45	0	1.03742959	-11.556543	220	5	1.1	0.9;
	135	1	36.74	10.3	0	8.1	0	1.02228888	-44.2721087	220	4	1.1	0.9;
	136	1	0	0	0	29.42	0	1.0211895	-7.88954868	380	5	1.1	0.9;
	137	2	0	0	0	0	0	1.021096	-7.6952872	380	5	1.1	0.9;
	138	1	274.32	5.66	0	13.24	0	1.0439067	-30.4948916	220	5	1.1	0.9;
	139	1	336.2	131.6	0	64.01	0	1.04988129	8.66426734	150	8	1.1	0.9;
	140	1	-22.95	-3.72	0	14.34	0	1.02778854	-45.5678862	220	4	1.1	0.9;
	141	1	0	0	0	70.37	0	1.04950215	-41.7343742	380	4	1.1	0.9;
	142	1	-0	0	0	17.44	0	1.02424389	-47.7056798	220	4	1.1	0.9;
	143	1	57.26	15.6	0	3.43	0	1.0229704	-49.3511298	220	4	1.1	0.9;
	144	1	7.01	2	0	0.44	0	1.01540644	4.80516337	150	8	1.1	0.9;
	145	2	0	0	0	0	0	1.012805	-47.1154364	220	4	1.1	0.9;
	146	1	20.52	4	0	2.77	0	1.03634356	-22.4707845	220	5	1.1	0.9;
	147	1	-0	-0	0	10.04	0	1.01847494	11.8499991	150	8	1.1	0.9;
	148	1	144.4	35.5	0	7.66	0	1.03797454	-14.9853895	220	5	1.1	0.9;
	149	1	-0	0	0	1.96	0	1.04396996	-6.58731375	220	5	1.1	0.9;
	150	1	-0	0	0	0.4	0	1.0628975	-8.77667822	380	5	1.1	0.9;
	151	1	77.29	7	0	17.6	0	1.01603083	-59.9218712	220	4	1.1	0.9;
	152	1	57.46	17.1	0	1.61	0	1.03888705	-7.35102114	220	5	1.1	0.9;
	153	2	0	0	0	0	0	1.074804	-32.983703	220	5	1.1	0.9;
	154	1	207.2	9.4	0	8.77	0	1.02670521	-50.0876709	220	4	1.1	0.9;
	155	1	118.5	20.4	0	2.57	0	1.04888294	-26.8384507	220	5	1.1	0.9;
	156	1	189.9	74.7	0	26.2	0	1.04328426	8.01020395	150	8	1.1	0.9;
	157	1	277.7	45.4	0	0.7	0	1.01438832	-46.1375619	220	4	1.1	0.9;
	158	1	87.8	-1.4	0.079073	36.047349	0	1.05963818	-47.9356712	380	10	1.1	0.9;
	159	1	57.96	18.9	0	14.91	0	1.0139871	3.77048123	150	8	1.1	0.9;
	160	1	79.69	39.6	0	18.83	0	1.0390517	-51.4024278	380	10	1.1	0.9;
	161	1	30.93	8.9	0	0.45	0	1.03327562	17.3405331	110	8	1.1	0.9;
	162	1	0	-0	0	5.15	0	1.07194295	-10.5364519	220	5	1.1	0.9;
	163	1	0	-0	0	10	0	1.04004123	-45.177952	220	4	1.1	0.9;
	164	1	180.8	90.8	0	2.42	0	0.969251199	-42.8537047	150	10	1.1	0.9;
	165	1	0	-0	0	1.97	0	1.02193051	-20.4172413	220	5	1.1	0.9;
	166	1	16.52	9	0	1.17	0	1.0367822	-22.2187554	220	5	1.1	0.9;
	167	1	-0.18	-3.57	0	0	0	1.01716077	18.3622317	150	8	1.1	0.9;
	168	1	42.25	16.6	0	0	0	1.03526124	6.85437344	150	8	1.1	0.9;
	169	1	0	-0	0	0.32	0	1.0519049	-11.0912538	220	5	1.1	0.9;
	170	2	0	0	0	0	0	1.069692	-46.8139379	220	5	1.1	0.9;
	171	1	0	-0	0	0.67	0	1.04511711	-10.4853998	220	5	1.1	0.9;
	172	1	-0.13	-1	0	0	0	1.04590359	27.596744	220	8	1.1	0.9;
	173	1	17.32	6.6	0	16.52	0	1.02159404	-51.4684161	380	4	1.1	0.9;
	174	2	0	0	0	0	0	1.043394	-15.4918004	220	5	1.1	0.9;
	175	1	21.12	8.3	0	4.26	0	1.03267635	5.48719641	150	8	1.1	0.9;
	176	1	-0	0	0	29.2	0	1.0545847	11.774658	380	8	1.1	0.9;
	177	1	67.57	17	0	5.75	0	1.03830708	-8.26755717	220	5	1.1	0.9;
	178	1	47.55	5.3	0	7.59	0	1.02870146	-50.0847886	220	4	1.1	0.9;
	179	1	33.34	15.7	0	64.15	0	1.05911964	-47.4613376	380	4	1.1	0.9;
	180	1	140.6	42.6	0	5.71	0	1.04111942	-14.2183044	220	5	1.1	0.9;
	181	1	110.8	-8.8	0	3.15	0	1.0238073	-46.7202781	220	4	1.1	0.9;
	182	1	33.24	4.4	0	24.54	0	0.996749184	-12.326552	380	5	1.1	0.9;
	183	1	150.9	10.4	0	4.77	0	1.06743372	-32.2827873	220	5	1.1	0.9;
	184	1	-0	-0	0	5.67	0	1.02259634	-14.7282339	220	5	1.1	0.9;
	185	1	-0	0	0	0.91	0	0.990246365	-55.3821887	150	10	1.1	0.9;
	186	2	0	0	0	0	0	1.06611	-10.3873605	220	5	1.1	0.9;
	187	2	0	0	0	0	0	1.049295	-12.7982654	220	5	1.1	0.9;
	188	2	0	0	0	0	0	1.028233	-48.4293905	380	4	1.1	0.9;
	189	1	72.88	14.4	0	2.96	0	1.04526064	-24.8604176	220	5	1.1	0.9;
	190	1	21.42	8.1	0	7.38	0	1.01952659	-51.3919515	220	4	1.1	0.9;
	191	2	0	0	0	0	0	0.98494	-34.4768192	220	10	1.1	0.9;
	192	2	0	0	0	0	0	1.046182	-30.4097655	220	5	1.1	0.9;
	193	1	45.32	18.5	0	0.74	0	1.0382993	-13.7375059	220	5	1.1	0.9;
	194	2	0	0	0	0	0	1.036757	-49.8849624	380	4	1.1	0.9;
	195	1	15.52	6.3	0	0.6	0	1.00721019	0.626154818	150	8	1.1	0.9;
	196	1	40.94	19.2	0	5.2	0	1.02505187	-48.0167205	220	4	1.1	0.9;
	197	1	17.22	4.4	0	1.71	0	1.02062686	13.6055099	110	8	1.1	0.9;
	198	1	-0.15	-1.93	0	0	0	1.02800795	19.7199342	220	8	1.1	0.9;
	199	1	258.4	66.7	0	5.87	0	1.03352694	-17.1055099	220	5	1.1	0.9;
	200	1	-0	-0	0.174507	73.977052	0	1.01742196	4.61571971	380	2	1.1	0.9;
	201	1	-0	-0	0	0.6	0	1.03242964	2.69638454	380	5	1.1	0.9;
	202	1	0	-0	0	4.14	0	1.02421842	12.6706709	380	8	1.1	0.9;
	203	1	-5.61	-2.79	0	150.93	0	1.0269322	-5.25356124	380	5	1.1	0.9;
	204	1	109.3	35.4	0	1.91	0	1.01486931	7.42806584	150	8	1.1	0.9;
	205	1	232.1	89.8	0	0.09	0	0.992477609	-18.1574869	220	5	1.1	0.9;
	206	2	0	0	0	0	0	1.065269	-9.7278995	220	5	1.1	0.9;
	207	2	0	0	0	0	0	1.018064	-46.2975103	220	4	1.1	0.9;
	208	1	-0	0	0	5.6	0	1.06154406	-2.81211803	220	5	1.1	0.9;
	209	1	-0	0	0	93.75	0	1.06101239	-39.8277741	380	4	1.1	0.9;
	210	1	96.41	26.5	0	0.08	0	1.00153706	-37.6785018	220	4	1.1	0.9;
	211	2	0	0	0	0	0	1.001541	-29.2771861	220	10	1.1	0.9;
	212	1	36.54	8.4	0	6.58	0	1.01596378	-52.3485021	220	4	1.1	0.9;
	213	1	-0	-0	0	0.48	0	1.00720253	-35.1299132	150	10	1.1	0.9;
	214	1	114.8	22.8	0	5.66	0	1.01376036	-43.7657103	220	4	1.1	0.9;
	215	1	83.99	21.2	0	5.36	0	1.05207029	-25.2334873	220	5	1.1	0.9;
	216	2	0	0	0	0	0	1.072146	-41.759147	380	4	1.1	0.9;
	217	1	76.38	5.1	0	3.97	0	1.05070631	-44.8311395	220	4	1.1	0.9;
	218	1	110.4	41.9	0	1.88	0	1.00982879	2.03352577	150	8	1.1	0.9;
	219	1	135.11	41	0	5.31	0	1.03253595	-24.6505006	220	5	1.1	0.9;
	220	1	-0	-0	0	23.554121	0	0.977287942	-27.1972177	380	5	1.1	0.9;
	221	1	0	-0	0	0.78	0	1.01137004	2.64441974	150	8	1.1	0.9;
	222	1	400.3	189.9	0	0.53	0	1.05223093	-3.67018528	220	5	1.1	0.9;
	223	1	0	0	0	61.48	0	1.04647345	-49.4939101	380	4	1.1	0.9;
	224	1	58.36	10.7	0	8.41	0	1.00474321	7.89693543	110	8	1.1	0.9;
	225	2	0	0	0	0	0	1.040583	-42.074888	380	4	1.1	0.9;
	226	1	0	-0	0	2.83	0	1.0617144	-2.81362624	220	5	1.1	0.9;
	227	1	69.58	16	0	3.03	0	1.07333401	-25.8205759	220	5	1.1	0.9;
	228	2	0	0	0	0	0	1.0548	-27.8791697	220	5	1.1	0.9;
	229	1	-0	-0	0	18.63	0	1.04034342	-23.9914293	220	5	1.1	0.9;
	230	2	0	0	0	0	0	1.023645	-43.4503726	220	4	1.1	0.9;
	231	1	132.1	32.4	0	58.29	0	1.04939456	-44.5569147	380	4	1.1	0.9;
	232	2	0	0	0	0	0	1.016623	-13.3576065	380	5	1.1	0.9;
	233	1	-0	0	0	7.85	0	1.04554475	-20.8294538	220	5	1.1	0.9;
	234	1	152.57	40	0	6.12	0	1.02727126	-9.87539043	220	5	1.1	0.9;
	235	1	343.9	141.9	0	5.55	0	1.03157985	-14.1111132	220	5	1.1	0.9;
	236	1	-55.14	-27.14	0	0	0	1.04995365	8.6722922	150	8	1.1	0.9;
	237	2	0	0	0	0	0	1.029038	-13.1960729	220	5	1.1	0.9;
	238	2	0	0	0	0	0	1.051035	-6.55054536	220	5	1.1	0.9;
	239	2	0	0	0	0	0	1.006139	-44.4095185	220	10	1.1	0.9;
	240	1	-26	-14.72	0	0	0	1.02689136	6.11296388	150	8	1.1	0.9;
	241	1	-0	-0	0	4.03	0	1.03296929	-33.3419016	220	10	1.1	0.9;
	242	1	-0	-0	0	6.63	0	1.04801416	-5.88614464	220	5	1.1	0.9;
	243	1	-0.15	-1	0	0.42	0	1.05748478	13.8912399	110	8	1.1	0.9;
	244	1	295.3	41.9	0	0	0	1.00769568	-3.66881646	150	2	1.1	0.9;
	245	2	0	0	0	0	0	1.039638	-15.2497248	220	5	1.1	0.9;
	246	1	2	114.6	0	16.15	0	1.01981185	-39.3561426	220	4	1.1	0.9;
	247	1	50.56	18	0	0.11	0	1.03621146	-11.5330161	220	5	1.1	0.9;
	248	2	0	0	0	0	0	1.04396	-24.5467425	220	5	1.1	0.9;
	249	1	-0	-0	0	7.26	0	1.05812696	-7.48162723	220	5	1.1	0.9;
	250	1	124.5	29.6	0	15.4	0	1.05324415	-11.0226763	220	5	1.1	0.9;
	251	1	-0	-0	0	32.02	0	1.00009529	9.27151139	380	8	1.1	0.9;
	252	2	0	0	0	0	0	1.057043	-37.7879965	380	4	1.1	0.9;
	253	1	24.53	8.6	0	7.01	0	1.02290243	-49.7999781	220	4	1.1	0.9;
	254	1	0	-0	0	58.088687	0	1.03101692	0.88684994	380	5	1.1	0.9;
	255	1	287.7	16.3	0	12.86	0	1.02407862	-49.9538124	380	4	1.1	0.9;
	256	1	0	-0	0	0.22	0	1.05327054	-0.634816319	220	5	1.1	0.9;
	257	2	0	0	0	0	0	1.044347	-1.56912631	380	5	1.1	0.9;
	258	1	615.81	286.69	0	101.04	0	1.03196975	4.96660269	150	8	1.1	0.9;
	259	1	-0	-0	0	8.17514	0	1.02769074	-0.432953071	380	5	1.1	0.9;
	260	2	0	0	0	0	0	1.041392	-41.3251825	380	4	1.1	0.9;
	261	2	0	0	0	0	0	1.006263	-16.9491844	220	5	1.1	0.9;
	262	1	49.96	7.5	0	8.86	0	1.02906639	-53.6206778	220	4	1.1	0.9;
	263	2	0	0	0	0	0	1.035299	2.06382581	380	5	1.1	0.9;
	264	1	94.2	5.5	0	6.51	0	1.02445124	-46.3283205	220	4	1.1	0.9;
	265	1	110	3.4	0	11.95	0	1.03996298	-24.148919	220	5	1.1	0.9;
	266	1	108.89	-21.76	0	3.72	0	1.0533736	-11.9828568	220	5	1.1	0.9;
	267	1	0	-0	0	25.28	0	1.03233517	10.9476454	150	8	1.1	0.9;
	268	1	192.5	78.3	0	6.65	0	1.01918593	-10.0223762	220	5	1.1	0.9;
	269	2	0	0	0	0	0	1.063198	-18.5375742	380	5	1.1	0.9;
	270	1	-0	-0	0	9.1	0	1.0684156	-34.5301725	220	5	1.1	0.9;
	271	1	25.63	7.9	0	0.77	0	1.01737397	14.9480475	110	8	1.1	0.9;
	272	1	0	0	0	0.15	0	1.04572272	-15.4875518	220	5	1.1	0.9;
	273	1	82.69	20.1	0	1.36	0	1.07329607	-25.8457483	220	5	1.1	0.9;
	274	1	631.71	-54.16	0	7.534129	0	1.03415798	-14.9908508	380	5	1.1	0.9;
	275	1	-0	-0	0	0.05	0	1.04252252	-9.66947355	220	5	1.1	0.9;
	276	1	125.9	-0.5	0	0.21	0	1.06252047	-7.96348091	220	5	1.1	0.9;
	277	2	0	0	0	0	0	1.032774	1.20623425	380	2	1.1	0.9;
	278	2	0	0	0	0	0	1.024009	-37.3977299	220	4	1.1	0.9;
	279	1	-0	0	0	13.89	0	1.01586867	12.9755241	380	8	1.1	0.9;
	280	1	34.44	8.5	0	1.11	0	1.04425516	-20.3068488	220	5	1.1	0.9;
	281	1	62.07	14.7	0	4.84	0	1.03547174	-22.5464983	220	5	1.1	0.9;
	282	1	112.9	19.3	0	17.34	0	1.01207496	1.51978022	150	8	1.1	0.9;
	283	1	43.75	12.4	0	9.35	0	1.02465271	-45.488717	220	4	1.1	0.9;
	284	2	0	0	0	0	0	1.063763	-37.2108457	380	4	1.1	0.9;
	285	1	77.59	12.3	0	5.1	0	1.03110087	-53.154085	220	4	1.1	0.9;
	286	1	-0	0	0	22.75	0	1.01920926	-21.4365225	220	5	1.1	0.9;
	287	1	-0	0	0	9.46	0	1.04771473	-24.0763242	220	5	1.1	0.9;
	288	1	90.7	5.8	0	4.1	0	0.989556688	-48.9130078	220	4	1.1	0.9;
	289	1	15.82	4	0	0.7	0	0.990812292	-54.9881858	150	10	1.1	0.9;
	290	1	69.08	22.6	0	0.54	0	1.01478369	1.22719951	150	8	1.1	0.9;
	291	1	108.7	-12.15	0	37.11	0	1.0640843	-12.406823	380	5	1.1	0.9;
	292	1	66.27	13.6	0	0.67	0	1.04339889	-21.1349894	220	5	1.1	0.9;
	293	1	244.2	152.7	0	0	0	1.00969827	-8.6112858	150	2	1.1	0.9;
	294	1	65.77	16.1	0	1.66	0	1.01472131	-45.8520868	220	4	1.1	0.9;
	295	1	-0	-0	0	108.728602	0	1.06289618	-8.77667364	380	5	1.1	0.9;
	296	1	42.55	17.1	0	1.67	0	1.04050056	-45.452075	220	4	1.1	0.9;
	297	1	88.5	16.5	0	146.44	0	1.01397478	-11.2650907	380	5	1.1	0.9;
	298	1	62.27	-2.1	0	8.01	0	1.01933084	-41.9552814	220	4	1.1	0.9;
	299	2	0	0	0	0	0	1.068998	5.51012223	380	5	1.3	0.7;
	300	2	0	0	0	0	0	1.029847	-49.1393311	380	4	1.1	0.9;
	301	1	14.71	4.6	0	7.88	0	1.04568406	-24.7463208	220	5	1.1	0.9;
	302	1	0	-0	0	0.84	0	1.02302759	-43.7911147	220	4	1.1	0.9;
	303	1	15.98	0.86	0	5.96	0	1.0220335	-52.0099991	220	4	1.1	0.9;
	304	1	-0	0	0	1.18	0	1.00093775	-38.4074401	150	10	1.1	0.9;
	305	1	-0	-0	0	8.62	0	1.0283015	-52.201901	220	4	1.1	0.9;
	306	1	-0	-0	0	25	0	1.00972883	1.41683505	150	8	1.1	0.9;
	307	1	20.02	6.8	0	0.48	0	1.01829079	21.8428649	110	8	1.1	0.9;
	308	1	0	-0	0	1.8	0	1.02032556	-32.8732172	220	1	1.1	0.9;
	309	2	0	0	0	0	0	1.073365	-33.1524787	220	5	1.1	0.9;
	310	2	0	0	0	0	0	1.040649	-19.6180898	220	5	1.1	0.9;
	311	1	0	0	0	0.81	0	1.05545844	-12.1140281	220	5	1.1	0.9;
	312	1	21.32	7.3	0	0.6	0	1.02525452	24.5607401	110	8	1.1	0.9;
	313	1	-0.2	-1	0	0	0	1.0233527	-0.116999064	150	8	1.1	0.9;
	314	1	136.06	40.4	0	12.08	0	0.995805436	-46.2974704	220	4	1.1	0.9;
	315	1	44.55	0	0	4.78	0	1.0525939	-5.32723605	220	5	1.1	0.9;
	316	1	8.21	3.31	0	8.38	0	1.04046762	7.98981314	150	8	1.1	0.9;
	317	2	0	0	0	0	0	1.019135	-46.0981717	220	4	1.1	0.9;
	318	1	-0	0	0	0.93	0	1.01917316	-51.4092556	220	4	1.1	0.9;
	319	1	241.4	-2.5	0.224624	31.280331	0	1.028604	-51.6714912	380	10	1.1	0.9;
	320	1	201.4	53	0	9.67	0	1.02809875	-28.9373644	220	5	1.1	0.9;
	321	1	-5.91	-2.33	0	30.393595	0	0.990026369	-17.6349067	380	5	1.1	0.9;
	322	2	0	0	0	0	0	1.00979	-35.7462571	220	4	1.1	0.9;
	323	1	26.33	5.3	0	4.31	0	1.04013577	-24.0686472	220	5	1.1	0.9;
	324	1	382.5	57.9	0	8.16	0	1.0664867	-32.0840542	220	5	1.1	0.9;
	325	2	0	0	0	0	0	1.038657	-30.8655499	220	10	1.1	0.9;
	326	1	-0	0	0	0.55	0	1.02008379	3.5187879	380	2	1.1	0.9;
	327	1	34.64	-0	0	0.91	0	1.03348911	-19.4695505	220	5	1.1	0.9;
	328	1	31.94	8.8	0	3.79	0	1.04209918	-8.92937165	220	5	1.1	0.9;
	329	2	0	0	0	0	0	1.029789	-3.58592183	380	5	1.1	0.9;
	330	1	47.05	19.3	0	0.04	0	0.996857218	-2.28252418	150	8	1.1	0.9;
	331	1	-0	0	0	3.79	0	1.04329413	-12.5630052	220	5	1.1	0.9;
	332	1	67.48	32.6	0	13.11	0	1.03738202	23.7346568	220	8	1.1	0.9;
	333	1	-0	-0	0	0	0	1.04640515	27.6786867	220	8	1.1	0.9;
	334	1	-0	0	0	75.38	0	1.06670714	-41.3078071	380	4	1.1	0.9;
	335	1	215.2	-7.6	0	1.24	0	1.0233298	-46.6404473	220	4	1.1	0.9;
	336	1	89.6	20	0	9.07	0	1.03126251	-53.604091	220	4	1.1	0.9;
	337	1	403.9	-0.1	0	143.1	0	1.04427649	-42.8011176	380	4	1.1	0.9;
	338	1	-0	0	0	0.1	0	1.03663848	-11.4991758	220	5	1.1	0.9;
	339	1	-0	-0	0	4.74	0	1.0576675	-3.39598738	220	5	1.1	0.9;
	340	1	277.86	58.95	0	182.880644	0	1.0383804	-10.1896745	380	5	1.1	0.9;
	341	2	0	0	0	0	0	1.046149	-8.54404948	220	5	1.1	0.9;
	342	1	12.01	5.6	0	39.29	0	1.03024976	-46.9514522	380	4	1.1	0.9;
	343	1	56.06	18.7	0	4.24	0	1.00968859	-21.1014699	220	5	1.1	0.9;
	344	2	0	0	0	0	0	1.026457	-8.12264009	380	5	1.1	0.9;
	345	1	28.53	11.3	0	3.25	0	1.03592099	7.44833219	150	8	1.1	0.9;
	346	1	0	-0	0	0.16	0	1.05147143	-1.03267824	220	5	1.1	0.9;
	347	2	0	0	0	0	0	1.045212	-4.26378014	220	5	1.1	0.9;
	348	1	-0	-0	0	2.05	0	1.0310043	-14.1567898	220	5	1.1	0.9;
	349	2	0	0	0	0	0	1.051902	-6.04928159	220	5	1.1	0.9;
	350	1	29.83	7.3	0	6.49	0	1.07417113	-25.765888	220	5	1.1	0.9;
	351	1	192.4	63.9	0	10	0	1.03913887	6.42535134	150	8	1.1	0.9;
	352	1	-54.06	13.1	0	14.23	0	1.02697017	-34.5067017	220	10	1.1	0.9;
	353	1	0	0	0	1.1	0	1.03844759	-8.26946772	220	5	1.1	0.9;
	354	1	59.27	5.1	0	26.03	0	1.04997085	-38.280991	380	4	1.1	0.9;
	355	1	-40.54	9.3	0	3.05	0	1.02605808	-38.7401962	220	4	1.1	0.9;
	356	2	0	0	0	0	0	1.019674	-38.6915753	220	4	1.1	0.9;
	357	1	-9	-10.19	0	0	0	1.02395242	18.113344	150	8	1.1	0.9;
	358	1	-0	-0	0	8.61	0	1.06160976	16.7082652	220	8	1.1	0.9;
	359	1	190.47	55.03	0	6.7	0	1.00291062	-21.9425462	220	5	1.1	0.9;
	360	1	115.2	319.2	0	290.91	0	1.0609979	-43.3079365	380	4	1.1	0.9;
	361	1	16.22	2	0	0.71	0	1.0326809	-18.1539151	220	5	1.1	0.9;
	362	1	-0	-0	0	0.05	0	1.04719698	-24.0341067	220	5	1.1	0.9;
	363	1	32.84	-0	0	1.41	0	1.02737616	-5.69650749	220	5	1.1	0.9;
	364	1	-0	-0	0	18.82	0	1.04221519	-20.1429364	220	5	1.1	0.9;
	365	1	12.41	3.9	0	2.23	0	1.03859832	-4.92771937	220	5	1.1	0.9;
	366	1	-0	0	0	1.91	0	1.04157391	-51.2178706	380	10	1.1	0.9;
	367	1	65.67	24	0	9.95	0	1.03778802	-21.9576527	220	5	1.1	0.9;
	368	1	112.4	13	0	3.99	0	1.05156268	-35.7306971	220	5	1.1	0.9;
	369	1	-0	-0	0	16.04	0	0.997127067	-0.613080458	380	2	1.1	0.9;
	370	1	0	-0	0	89.06	0	1.04486761	-42.0076505	380	4	1.1	0.9;
	371	1	-0	-0	0	2.3	0	1.0738861	-24.9964167	220	5	1.1	0.9;
	372	2	0	0	0	0	0	1.026125	-41.2915139	220	4	1.1	0.9;
	373	2	0	0	0	0	0	1.004865	-37.7747062	150	10	1.1	0.9;
	374	2	0	0	0	0	0	1.040018	-39.188118	220	4	1.1	0.9;
	375	1	86.6	23.4	0	0.39	0	1.03304654	-2.60814669	220	5	1.1	0.9;
	376	1	199.4	-19.9	0	6.68	0	1.06546309	-32.4833818	220	5	1.1	0.9;
	377	1	150.4	15.3	0	8.09	0	1.01407279	-43.8065943	220	4	1.1	0.9;
	378	1	67.57	21.2	0	5.71	0	1.03478302	-4.99362573	220	5	1.1	0.9;
	379	1	30.93	6.6	0	9.09	0	1.05553456	-13.9317335	220	5	1.1	0.9;
	380	1	129.6	13.3	0	13.98	0	1.03864294	-14.7163918	380	5	1.1	0.9;
	381	1	0	0	0	30.637696	0	0.990911865	-14.3955452	380	5	1.1	0.9;
	382	1	124.8	7.9	0	48.99	0	1.02896621	-41.0718552	380	4	1.1	0.9;
	383	1	114.1	23.5	0	1.08	0	1.04489255	-19.5611949	220	5	1.1	0.9;
	384	1	-0.19	-1	0	0	0	1.02445177	3.50725774	150	8	1.1	0.9;
	385	1	70.18	28.7	0	0.8	0	1.00263613	1.79584325	150	8	1.1	0.9;
	386	1	0	0	0	4.93	0	1.04328429	-10.0568163	220	5	1.1	0.9;
	387	1	230.5	91	0	57.67	0	1.02138918	-0.143909121	150	8	1.1	0.9;
	388	1	-0.18	-1	0	0	0	1.02165117	11.7216434	150	8	1.1	0.9;
	389	1	0	-0	0	81.52	0	1.05062561	-49.479295	380	4	1.1	0.9;
	390	1	0	-0	0	1.72	0	1.03771565	-21.9825026	220	5	1.1	0.9;
	391	1	71.78	17.9	0	1.96	0	1.02113104	-16.2315947	220	5	1.1	0.9;
	392	2	0	0	0	0	0	1.105045	-5.64423679	380	5	1.3	0.7;
	393	1	0	-0	0	0	0	1.00028356	-54.8255704	220	10	1.1	0.9;
	394	1	23.53	4	0	9.39	0	1.02359429	-41.2805335	220	4	1.1	0.9;
	395	2	0	0	0	0	0	1.021438	-37.8126354	220	4	1.1	0.9;
	396	1	0	0	0	1.17	0	1.04275772	-10.4692273	220	5	1.1	0.9;
	397	1	348.93	26.47	0	9.36	0	1.01979585	-11.1137947	380	5	1.1	0.9;
	398	1	39.44	24.9	0	4.18	0	0.992759932	-34.9529913	150	10	1.1	0.9;
	399	2	0	0	0	0	0	1.0265	-8.13218753	380	5	1.1	0.9;
	400	1	20.62	8.2	0	6.62	0	1.01418949	6.0007325	150	8	1.1	0.9;
	401	1	50.86	36.6	0	0	0	1.0061516	16.8901794	150	8	1.1	0.9;
	402	1	-0	0	0	10.73	0	1.03834924	-21.4889111	220	5	1.1	0.9;
	403	1	173	-21.3	0	5.93	0	1.06584951	-49.6848916	220	5	1.1	0.9;
	404	2	0	0	0	0	0	1.015573	-45.9707874	220	4	1.1	0.9;
	405	1	52.46	2.9	0	0.35	0	1.03008423	-18.5298874	220	5	1.1	0.9;
	406	1	-0.2	-1	0	0	0	1.02349197	-0.115456612	150	8	1.1	0.9;
	407	1	0	-0	0	107.39	0	1.0744585	-36.471226	380	4	1.1	0.9;
	408	1	202	34.1	0	1.94	0	1.02279614	-46.6258467	220	4	1.1	0.9;
	409	1	6.11	-0	0	2.51	0	1.01408015	-48.063174	220	4	1.1	0.9;
	410	2	0	0	0	0	0	1.038943	-8.51019293	220	5	1.1	0.9;
	411	1	479	99.2	0	10.68	0	1.05047001	-28.2455341	220	5	1.1	0.9;
	412	1	-0	-0	0	4.34	0	1.03882257	-22.1126765	220	5	1.1	0.9;
	413	1	37.94	15.2	0	35.31	0	1.03280065	-21.1709187	380	5	1.1	0.9;
	414	1	149.3	-2	0	20.77	0	1.01378194	2.57811739	380	2	1.1	0.9;
	415	1	0	0	0	0.98	0	1.06856515	-34.5311671	220	5	1.1	0.9;
	416	1	100.6	15.3	0	1.28	0	0.993585285	-0.766377267	150	8	1.1	0.9;
	417	1	-0.17	-1.82	0	0	0	1.05009278	19.3507312	380	8	1.1	0.9;
	418	1	0	0	0	0.59	0	1.0237699	-16.0210489	220	5	1.1	0.9;
	419	1	29.03	9.4	0	5.11	0	1.04747177	12.6991801	110	8	1.1	0.9;
	420	1	108.4	-2.4	0	80.12	0	1.05478438	-45.9721037	380	10	1.1	0.9;
	421	2	0	0	0	0	0	1.030396	-14.15264	220	5	1.1	0.9;
	422	1	-0	-0	0	58.3	0	0.998620582	-13.9604889	380	5	1.1	0.9;
	423	1	-0	0	0	2.13	0	1.02465194	-45.9303405	220	4	1.1	0.9;
	424	1	0	-0	0	12.2	0	1.02722552	-52.9083026	220	4	1.1	0.9;
	425	1	30.53	13.8	0	2.19	0	1.02128688	0.578924852	150	8	1.1	0.9;
	426	1	28.93	11.9	0	3.84	0	1.01669648	1.27081429	150	8	1.1	0.9;
	427	2	0	0	0	0	0	1.04168	-7.28681167	220	5	1.1	0.9;
	428	1	-3.29	-1.32	0	190.704588	0	1.0324445	-8.29579992	380	5	1.1	0.9;
	429	1	-0	-0	0	6.93	0	1.04575095	27.595758	220	8	1.1	0.9;
	430	1	40.85	14.5	0	0.59	0	1.03565053	-11.8759763	220	5	1.1	0.9;
	431	1	0	-0	0.175687	-1.509401	0	1.00890341	0.567019873	380	2	1.1	0.9;
	432	1	145.2	21.4	0	1.09	0	1.02820348	-22.5330876	220	5	1.1	0.9;
	433	2	0	0	0	0	0	1.028915	-37.0636894	220	4	1.1	0.9;
	434	1	-0	-0	0	4.2	0	1.02748932	19.7181499	220	8	1.1	0.9;
	435	1	2.4	0.7	0	10.69	0	1.02657457	-45.2590643	220	4	1.1	0.9;
	436	1	30.93	7.6	0	4.69	0	1.07407152	-25.7541922	220	5	1.1	0.9;
	437	1	0	-0	0	2.14	0	1.03949929	-12.5538186	220	5	1.1	0.9;
	438	1	196.7	44.2	0	0.1	0	1.01691822	-18.7865712	220	5	1.1	0.9;
	439	2	0	0	0	0	0	1.052722	-48.6116068	380	4	1.1	0.9;
	440	1	11.91	2.9	0	5.27	0	1.03556732	-14.5040663	220	5	1.1	0.9;
	441	1	0	-0	0	4.15	0	0.996887804	-49.1558952	150	10	1.1	0.9;
	442	2	0	0	0	0	0	1.024907	-48.0083265	220	4	1.1	0.9;
	443	1	0	-0	0	7.52	0	1.01205058	-47.2210859	220	4	1.1	0.9;
	444	1	144.7	20.3	0	6.35	0	1.02261779	-27.3592985	220	5	1.1	0.9;
	445	1	0	-0	0	0.3	0	1.03109883	-11.1390546	220	5	1.1	0.9;
	446	1	40.55	3.6	0	1.88	0	1.02202804	-54.2078473	220	4	1.1	0.9;
	447	1	42.95	19.8	0	3.85	0	1.02163014	-51.6282791	220	4	1.1	0.9;
	448	2	0	0	0	0	0	1.045292	-20.6706497	220	5	1.1	0.9;
	449	1	20.82	7.9	0	5.62	0	1.01562621	-50.3229387	220	4	1.1	0.9;
	450	1	-0	0	0	3.85	0	1.0439276	-23.7923858	220	5	1.1	0.9;
	451	2	0	0	0	0	0	1.049261	-12.6503477	220	5	1.1	0.9;
	452	1	204.6	53.2	0	7.4	0	0.989600221	-37.8579876	220	4	1.1	0.9;
	453	1	110.1	2	0	13.85	0	1.0253419	-47.9890587	220	4	1.1	0.9;
	454	1	238.4	210.9	0	0	0	1.00444485	-1.8880481	220	2	1.1	0.9;
	455	1	0	0	0	9.49	0	1.07430101	-14.7333258	220	5	1.1	0.9;
	456	1	20.82	36	0	0.97	0	1.01673016	-39.2345319	220	4	1.1	0.9;
	457	2	0	0	0	0	0	1.05352	-38.0852237	380	4	1.1	0.9;
	458	1	-0	-0	0	3.38	0	1.04200477	-21.4274294	220	5	1.1	0.9;
	459	1	0	0	0	1.44	0	1.03816756	-39.089644	220	4	1.1	0.9;
	460	1	-0	0	0	0.42	0	1.04531369	-20.6711599	220	5	1.1	0.9;
	461	1	109.6	36.4	0	13.24	0	1.03609343	7.20803761	150	8	1.1	0.9;
	462	1	22.73	6.4	0	2.1	0	1.0209057	7.35332196	150	8	1.1	0.9;
	463	1	-11.03	-5.11	0	29.706803	0	0.987708985	-14.781481	380	5	1.1	0.9;
	464	1	95.61	8.6	0	3.48	0	0.981218922	-48.8276004	220	4	1.1	0.9;
	465	2	0	0	0	0	0	1.025403	-42.9461509	380	4	1.1	0.9;
	466	1	0	-0	0	5.51	0	1.03466868	10.188629	150	8	1.1	0.9;
	467	2	0	0	0	0	0	1.046165	-15.7590549	220	5	1.1	0.9;
	468	1	82.19	23.4	0	17.91	0	1.02970275	-42.9300053	380	4	1.1	0.9;
	469	1	0	0	0	4.86	0	1.06450205	-25.3190659	220	5	1.1	0.9;
	470	1	79.59	18.8	0	6.78	0	1.03475396	-22.7988539	220	5	1.1	0.9;
	471	1	0	-0	0	2.54	0	1.02679432	-35.8453679	220	10	1.1	0.9;
	472	1	117.5	-3	0	5.38	0	1.02392047	-46.951659	220	4	1.1	0.9;
	473	1	-1.85	-1.63	0	31.424588	0	1.03218657	-11.4219575	380	5	1.1	0.9;
	474	2	0	0	0	0	0	1.078389	-39.6153548	380	4	1.1	0.9;
	475	1	-0	-0	0	12.57	0	1.03000705	-53.5186692	220	4	1.1	0.9;
	476	1	-0	0	0	37.116157	0	1.02675685	-26.2139746	380	5	1.1	0.9;
	477	1	142.8	-6.4	0	12.36	0	1.02313433	-43.4124273	220	4	1.1	0.9;
	478	1	0	-0	0	1.84	0	1.02601461	-13.5897276	220	5	1.1	0.9;
	479	1	-35.74	38.6	0	4.65	0	1.01924319	-39.4347084	220	4	1.1	0.9;
	480	1	22.02	9	0	0.24	0	1.02110728	1.96671558	150	8	1.1	0.9;
	481	1	173.6	72.9	0	2.5	0	1.00834075	-46.2376989	220	4	1.1	0.9;
	482	1	-10.86	-5.93	0	12.54	0	1.04383334	-11.2707073	220	5	1.1	0.9;
	483	1	-0	0	0	0	0	1.01037418	-8.23357577	150	2	1.1	0.9;
	484	1	36.34	15.2	0	0.3	0	1.03750563	-9.08649693	220	5	1.1	0.9;
	485	1	73.58	3.24	0	52.35	0	1.05981247	-14.9801365	220	5	1.1	0.9;
	486	1	125.4	45.8	0	0	0	1.05162702	-17.8554582	220	5	1.1	0.9;
	487	1	116.7	64	0	10.41	0	0.993825849	-49.2245689	220	10	1.1	0.9;