function mpc = case6515rte_SE
%CASE6515RTE_SE

%% MATPOWER Case Format : Version 2
mpc.version = '2';

%%-----  Power Flow Data  -----%%
%% system MVA base
mpc.baseMVA = 100;

%% bus data
%	bus_i	type	Pd	Qd	Gs	Bs	area	Vm	Va	baseKV	zone	Vmax	Vmin
mpc.bus = [
	1	1	0	0	0	0	1	0.992673053	-12.8403638	45	1	1	0.888889;
	2	1	0	0	0	0	1	1.02546104	-9.78410998	63	1	1.06349	0.936508;
	3	1	14.8	3.8	0	0	1	1.00864352	-17.1827577	63	1	1.07937	0.952381;
	4	1	49.6	2.8	0	0	1	1.02422997	-30.3365086	90	1	1.08889	0.933333;
	5	1	12.9	0.9	0	0	1	1.00903346	-61.8341942	63	1	1.06349	0.952381;
	6	1	13	5.3	0	0	1	1.03039689	-21.8671146	63	1	1.07937	0.920635;
	7	1	2.3	0.2	0	0	1	1.04823977	-23.3261502	63	1	1.07937	0.920635;
	8	1	15.8	-0.3	0	0	1	1.04175443	-22.6525305	225	1	1.08889	0.888889;
	9	1	14.9	0	0	0	1	1.04155568	-20.2611849	63	1	1.06349	0.936508;
	10	1	0	0	0	0	1	1.0132689	-29.1395621	90	1	1.07778	0.922222;
	11	1	33.2	4.9	0	0	1	1.01326868	-29.1395596	90	1	1.07778	0.922222;
	12	1	0	0	0	0	1	1.01492906	-3.69060153	63	1	1.07937	0.952381;
	13	1	0	0	0	0	1	1.06112989	-5.52172836	380	1	1.10263	1.05271;
	14	1	63.2	13.3	0	30.4	1	1.05559116	-38.6797247	90	1	1.07778	0.977778;
	15	1	0	0	0	0	1	1.02066893	-25.2195205	63	1	1.07937	0.920635;
	16	1	13.9	1.9	0	0	1	1.03089961	-28.8951518	63	1	1.07937	0.920635;
	17	1	10.9	0.1	0	0	1	1.0419086	-35.4933221	90	1	1.06667	0.977778;
	18	1	0	0	0	0	1	0.938816922	-6.53255165	45	1	1	0.888889;
	19	1	1	0	0	0	1	1.0191583	-24.0776305	63	1	1.06349	0.936508;
	20	1	5.6	-18	0	0	1	0.939550372	-6.57180894	45	1	1	0.888889;
	21	1	7.6	-1.6	0	0	1	1.02352367	-23.3060459	90	1	1.06667	0.977778;
	22	1	18.5	1	0	0	1	1.00657521	-18.2390237	63	1	1.07937	0.952381;
	23	1	22.4	2.2	0	0	1	1.01974648	-11.4904546	63	1	1.06349	0.936508;
	24	1	17	-1.5	0	0	1	1.02620358	-28.890958	90	1	1.11111	0.955556;
	25	1	54.7	-1.1	0	0	1	1.06210876	-24.9280278	90	1	1.1	0.944444;
	26	1	15.1	10.6	0	0	1	1.01923141	-30.5552091	90	1	1.06667	0.977778;
	27	1	0	0	0	0	1	1.05630841	-25.6833241	225	1	1.08444	1.00444;
	28	1	0.9	-0.2	0	0	1	1.01919756	-24.3754614	63	1	1.07937	0.952381;
	29	1	76.5	9.4	0	0	1	0.992476949	-26.2673162	63	1	1.06349	0.968254;
	30	1	39.9	3.5	0	0	1	1.01607663	-29.4520467	90	1	1.08889	0.933333;
	31	1	0	0	0	0	1	1.04325949	-10.3654276	63	1	1.06349	0.936508;
	32	1	0	0	0	0	1	1.04825127	-5.16928762	150	1	1.10667	0.9;
	33	1	0	0	0	0	1	1.05862345	-7.52965935	225	1	1.08889	0.933333;
	34	1	0	0	0	0	1	1.05568978	-6.87149847	225	1	1.08889	0.933333;
	35	1	0	0	0	0	1	1.07212098	-6.26585096	380	1	1.10526	1.03947;
	36	1	0	0	0	0	1	1.07555326	-5.28439736	380	1	1.10526	1.03947;
	37	1	-2.7	3	0	0	1	1.01345584	-27.1469275	63	1	1.07937	0.920635;
	38	1	5	-1	0	0	1	1.02829837	-25.8616579	63	1	1.09524	0.936508;
	39	1	43.6	-2.9	0	0	1	1.01570694	-46.2088792	90	1	1.07778	0.977778;
	40	1	38.1	4.1	0	0	1	1.04839396	-36.8193411	90	1	1.07778	0.977778;
	41	1	0	0	0	0	1	1.05970736	-31.1585877	225	1	1.08889	1.00444;
	42	1	0	0	0	0	1	1.12316345	0.178034795	63	1	1.13099	0.952381;
	43	1	3.2	2.7	0	0	1	1.03415253	-33.0194341	90	1	1.07778	0.977778;
	44	1	13.3	0.1	0	0	1	1.02400777	-57.5161511	63	1	1.06349	0.952381;
	45	1	3.8	1.6	0	0	1	1.01408884	-40.0231001	90	1	1.06667	0.977778;
	46	1	0	0	0	0	1	1.0295612	-17.0986024	63	1	1.06349	0.936508;
	47	2	0	0	0	0	1	1.022	-13.006679	63	1	1.06349	0.936508;
	48	1	40.4	5.6	0	0	1	1.01540389	-30.4742927	90	1	1.07778	0.922222;
	49	1	9.8	-1.9	0	0	1	1.02413974	-18.4530926	63	1	1.06349	0.936508;
	50	1	0	0	0	0	1	1.06676705	-15.884426	63	1	1.06927	0.936508;
	51	1	0	0	0	0	1	1.05441946	-10.9123946	225	1	1.08889	0.933333;
	52	1	6.5	2.9	0	0	1	1.02819016	-42.0549158	90	1	1.06667	0.977778;
	53	1	0	-1.3	0	0	1	0.990894451	-33.1902967	63	1	1.04762	0.952381;
	54	1	0.3	-0.3	0	0	1	1.03197364	-22.2900686	90	1	1.06667	0.977778;
	55	1	50.9	12.3	0	0	1	1.06700841	-34.6073875	225	1	1.08889	1.00444;
	56	1	75.5	20.5	0	0	1	1.05516755	-29.8533821	225	1	1.08889	1.00444;
	57	2	0	0	0	0	1	1.058	-20.1625822	63	1	1.07937	0.920635;
	58	1	154	36.4	0	0	1	1.06686281	-34.6246611	225	1	1.08889	1.00444;
	59	1	5	1	0	0	1	1.02827765	-15.3788271	63	1	1.07937	0.952381;
	60	1	0	0	0	0	1	1.03376909	-9.96515282	63	1	1.07937	0.952381;
	61	1	46.3	11.9	0	0	1	1.0348985	-11.5535756	63	1	1.07937	0.952381;
	62	1	0	0	0	0	1	1.02055976	-9.93290622	63	1	1.07937	0.952381;
	63	1	16.8	2.9	0	0	1	1.01125339	-4.2590765	63	1	1.07937	0.952381;
	64	1	67.3	7.1	0	0	1	1.0546731	-22.3638978	225	1	1.08889	0.888889;
	65	1	12	2.8	0	0	1	1.04688111	-12.1856889	63	1	1.07937	0.952381;
	66	1	13	-6.4	0	0	1	1.0270722	-27.7589011	63	1	1.06349	0.936508;
	67	1	1	0	0	0	1	1.03945347	-23.5502184	63	1	1.07937	0.920635;
	68	1	53.1	1.1	0	0	1	1.01382376	-17.0620344	63	1	1.06349	0.936508;
	69	1	20.8	1.3	0	0	1	1.04182792	-62.4520564	63	1	1.06349	0.952381;
	70	1	10.6	4.2	0	0	1	1.02517776	-2.57642009	63	1	1.07937	0.952381;
	71	1	69.4	17.5	0	0	1	1.00979621	-33.35107	63	1	1.04762	0.952381;
	72	1	0	0	0	0	1	1.07727637	-26.6177635	225	1	1.08889	1.00444;
	73	1	0	0	0	0	1	1.07728776	-26.6170687	225	1	1.08889	1.00444;
	74	1	58.8	-5	0	0	1	1.05521642	-22.2028985	225	1	1.08889	0.888889;
	75	1	25.2	1.9	0	0	1	1.03831801	-25.8925778	90	1	1.06667	0.977778;
	76	1	5.9	-2.1	0	0	1	1.0767355	-0.73103357	225	1	1.08889	0.986667;
	77	1	43.7	0.4	0	0	1	1.01539335	-18.6742206	63	1	1.06349	0.936508;
	78	1	0	0	0	0	1	1.0381045	-26.0357435	63	1	1.07937	0.920635;
	79	1	0	0	0	0	1	1.00480897	-32.1637216	63	1	1.04762	0.952381;
	80	1	32.4	10.5	0	0	1	1.03513924	-31.7050861	225	1	1.08889	1.00444;
	81	1	32.4	9.1	0	0	1	1.03515795	-31.7050378	225	1	1.08889	1.00444;
	82	1	11.3	0.3	0	0	1	1.02513845	-19.7398709	63	1	1.06349	0.936508;
	83	1	79	24.8	0	0	1	1.04529914	-32.2810482	225	1	1.08889	1.00444;
	84	1	-0.1	0.4	0	0	1	1.01622729	-14.3037919	63	1	1.06349	0.936508;
	85	1	0.7	-1.5	0	0	1	1.04080844	-18.0937737	63	1	1.06349	0.936508;
	86	1	48.8	5.2	0	0	1	1.01614448	-49.920228	90	1	1.06667	0.977778;
	87	1	0	0	0	0	1	1.02330517	-4.28030734	63	1	1.07937	0.952381;
	88	1	14.8	-1.2	0	0	1	1.03614097	-22.0383216	63	1	1.06349	0.936508;
	89	1	26.2	0.3	0	0	1	1.02844336	-35.7545594	90	1	1.07778	0.977778;
	90	1	0.2	-2.3	0	0	1	0.942964456	-7.24730826	45	1	1	0.888889;
	91	1	0	0	0	0	1	0.938816922	-6.53255165	45	1	1	0.888889;
	92	1	31.8	1.1	0	0	1	1.00914596	-21.2539382	63	1	1.06349	0.968254;
	93	1	2	-2.8	0	0	1	0.954341187	-8.93805899	45	1	1	0.888889;
	94	1	18.2	-4	0	0	1	1.03482919	-29.3274874	90	1	1.06667	0.977778;
	95	1	57.2	9.4	0	0	1	1.02330918	-41.8900636	90	1	1.06667	0.977778;
	96	1	0.9	-0.2	0	0	1	1.05013886	-10.4657094	63	1	1.06349	0.936508;
	97	1	57.7	3.8	0	0	1	1.06376749	-23.1435125	63	1	1.07937	0.920635;
	98	1	9.5	1	0	0	1	1.01837901	-23.5948618	63	1	1.07937	0.952381;
	99	1	35.8	5.9	0	0	1	1.04200007	-11.2353692	63	1	1.07937	0.952381;
	100	1	63	7.8	0	0	1	1.01989873	-16.7169906	63	1	1.06349	0.936508;
	101	1	17.3	-0.8	0	0	1	1.00720077	-15.3953912	63	1	1.06349	0.936508;
	102	2	0	0	0	0	1	1.033	-17.5359818	63	1	1.07937	0.952381;
	103	1	12.6	-1.2	0	0	1	1.0340223	-10.2345172	63	1	1.07937	0.952381;
	104	1	0	0	0	0	1	1.06896147	-7.23857243	225	1	1.08889	0.986667;
	105	1	36.9	2.2	0	0	1	1.03585863	-20.6610718	225	1	1.08889	0.888889;
	106	1	58.2	10.7	0	0	1	1.04519922	-25.677444	90	1	1.1	0.944444;
	107	1	107	14.3	0	0	1	1.04050916	-31.5038428	225	1	1.08444	1.00889;
	108	1	12.2	-2.4	0	0	1	1.04638167	-31.1275582	90	1	1.07778	0.977778;
	109	1	67.8	8.7	0	0	1	1.03905101	-13.9603561	63	1	1.06349	0.936508;
	110	1	0	0	0	0	1	1.02643329	-9.98919251	225	1	1.08889	0.933333;
	111	1	38.7	-7.5	0	0	1	0.999939835	-23.8488886	63	1	1.06349	0.968254;
	112	1	0	0	0	0	1	1.00846719	-32.7176771	63	1	1.04762	0.952381;
	113	1	0	0	0	0	1	1.04193593	-29.0701893	225	1	1.08889	1.00444;
	114	1	13.4	1.1	0	0	1	1.05164353	-14.012465	63	1	1.06349	0.936508;
	115	1	0	0	0	0	1	1.06113909	-5.52181174	380	1	1.10526	1.05263;
	116	1	0	0	0	0	1	1.06113909	-5.52181174	380	1	1.10526	1.05263;
	117	1	14.9	0.2	0	0	1	1.01489567	-22.0528152	63	1	1.07937	0.952381;
	118	1	2	0.7	0	0	1	1.04071528	-25.5778502	90	1	1.06667	0.977778;
	119	1	40.6	6.9	0	0	1	1.00751508	-12.2861974	63	1	1.06349	0.936508;
	120	1	22	-2.3	0	0	1	1.02701827	-10.6678305	63	1	1.06349	0.936508;
	121	1	20.8	1.4	0	0	1	1.01905696	-28.4289172	63	1	1.07937	0.920635;
	122	2	0	0	0	0	1	1.026	-11.4825698	63	1	1.07937	0.952381;
	123	1	12	4.6	0	0	1	1.02345494	-11.6140582	63	1	1.07937	0.952381;
	124	1	8	-0.4	0	0	1	1.03058279	-32.03882	90	1	1.06667	0.977778;
	125	1	11.1	0.4	0	0	1	1.02451476	-17.606063	63	1	1.07937	0.952381;
	126	1	0.2	0.8	0	0	1	1.0420058	-18.1643656	63	1	1.06349	0.936508;
	127	1	14.7	2.7	0	0	1	1.00893682	-34.777836	63	1	1.04762	0.952381;
	128	1	13.8	7.2	0	0	1	1.02420697	-13.4436808	63	1	1.06349	0.968254;
	129	1	19.1	10.8	0	0	1	1.02228032	-11.677649	63	1	1.06349	0.968254;
	130	1	0	0	0	0	1	1.04938653	-10.7490942	225	1	1.08444	1.00889;
	131	1	119.3	12	0	0	1	1.0479766	-19.2901676	225	1	1.08444	1.00889;
	132	2	9.4	0	0	0	1	1.061	-17.3999228	90	1	1.07778	0.922222;
	133	1	2.7	0.4	0	0	1	0.977015673	-35.6971124	63	1	1.04762	0.952381;
	134	1	101.1	27.4	0	0	1	1.01919464	-32.3608191	225	1	1.08889	1.00444;
	135	1	0	0	0	0	1	1.06787852	-34.430454	225	1	1.08889	1.00444;
	136	1	23.9	1.4	0	0	1	1.0286017	-45.1557564	90	1	1.07778	0.977778;
	137	2	8.7	-3	0	0	1	1.021	-13.7673148	63	1	1.06349	0.968254;
	138	1	0	0	0	0	1	1.05230739	-11.8459972	150	1	1.08	0.966667;
	139	1	8	7.1	0	0	1	1.04648956	-14.9159392	63	1	1.07937	0.920635;
	140	1	0	0	0	80	1	1.07646103	-11.6882095	225	1	1.08889	1;
	141	1	0	0	0	0	1	1.08763345	-8.32186061	380	1	1.10526	1.05263;
	142	1	22.4	7.4	0	0	1	1.0322889	-14.8913926	63	1	1.07937	0.952381;
	143	1	0	0	0	0	1	1.06313798	-9.96293904	225	1	1.08889	0.986667;
	144	1	16	5	0	0	1	1.03309181	-26.8631279	90	1	1.11111	0.955556;
	145	1	23.4	9	0	0	1	1.05635444	-22.088586	225	1	1.08889	0.968889;
	146	1	0	0	0	0	1	1.07128281	-18.8727958	380	1	1.10526	1;
	147	1	30	5.5	0	0	1	1.04390747	-16.0668969	63	1	1.06349	0.936508;
	148	1	6.6	1.2	0	0	1	1.03749814	-13.2051343	63	1	1.06349	0.936508;
	149	1	16.9	4.1	0	0	1	1.03408374	-41.2168208	90	1	1.06667	0.977778;
	150	1	48.5	3.2	0	0	1	1.04112536	-10.8534807	63	1	1.06349	0.936508;
	151	1	0	0	0	0	1	0.980986545	-26.9297074	63	1	1.06349	0.968254;
	152	1	45.3	12	0	7.7	1	0.980839154	-25.6752485	63	1	1.06349	0.968254;
	153	1	27.3	-5.5	0	0	1	1.04181226	-13.2249629	63	1	1.06349	0.936508;
	154	1	0	0	0	0	1	1.06674442	-9.80020313	225	1	1.08889	0.933333;
	155	2	0	0	0	0	1	1.03406286	-20.2153641	63	1	1.07937	0.920635;
	156	1	0	0	0	0	1	0.980935917	-26.9346624	63	1	1.06349	0.968254;
	157	1	0	-2.2	0	0	1	0.935542797	-10.5302944	45	1	1	0.888889;
	158	2	0	0	0	0	1	0.959	-8.81517372	45	1	1	0.888889;
	159	1	0	0	0	0	1	1.03725795	-13.4585466	63	1	1.06349	0.936508;
	160	1	41.7	5.9	0	0	1	1.04467102	-19.1070438	225	1	1.08889	0.888889;
	161	1	43.7	10	0	0	1	1.04448642	-19.1109314	225	1	1.08889	0.888889;
	162	1	-0.3	-1.6	0	0	1	1.01339884	-30.3090276	90	1	1.06667	0.977778;
	163	1	0	0	0	0	1	1.02801672	-10.7182437	63	1	1.07937	0.952381;
	164	1	0	0	0	0	1	1.02801672	-10.7182437	63	1	1.07937	0.952381;
	165	1	16.5	14.6	0	0	1	1.05983202	-36.3081592	20	1	1.15	0.8;
	166	1	13.3	3.2	0	0	1	1.03524134	-40.7755575	90	1	1.06667	0.977778;
	167	1	17.8	-0.8	0	0	1	1.02999342	-41.2388322	90	1	1.06667	0.977778;
	168	1	0	0	0	0	1	1.05995949	-36.3017121	225	1	1.08444	1.00444;
	169	1	9.9	-0.9	0	0	1	1.01990728	-34.6444842	90	1	1.06667	0.977778;
	170	1	79.8	13.5	0	0	1	1.02344206	-35.0665954	90	1	1.07778	0.977778;
	171	1	28	0.8	0	30	1	1.04082814	-39.1212301	90	1	1.07778	0.977778;
	172	1	0	0	0	0	1	1.04692773	-34.5178659	225	1	1.08889	1.00444;
	173	1	28.5	8	0	0	1	1.0590281	-23.8231191	90	1	1.08889	0.933333;
	174	1	59.7	11.6	0	0	1	1.05612022	-26.5472916	90	1	1.11111	0.955556;
	175	1	0	0	0	0	1	1.03904928	-18.7246555	63	1	1.07937	0.920635;
	176	2	0	0	0	0	1	1.0990839	-16.9475537	150	1	1.1	0.9;
	177	1	0	0	0	0	1	1.06242188	-30.9951007	225	1	1.08889	1.00444;
	178	1	0	0	0	0	1	1.0624221	-30.9951019	225	1	1.08889	1.00444;
	179	1	0	0	0	0	1	1.00913769	-34.7636361	63	1	1.04762	0.952381;
	180	1	0	0	0	0	1	1.06242061	-30.9950938	225	1	1.08889	1.00444;
	181	1	12.7	-5.3	0	0	1	1.05536441	-25.4646998	63	1	1.07937	0.920635;
	182	1	16	3.1	0	0	1	1.03881223	-11.067495	63	1	1.06349	0.936508;
	183	1	5.5	-1.7	0	0	1	1.02470225	-22.7794203	63	1	1.07937	0.952381;
	184	1	5	1.4	0	0	1	1.06245646	-33.0990347	90	1	1.07778	0.977778;
	185	1	30.6	2.7	0	0	1	1.02299845	-15.8258521	63	1	1.07937	0.952381;
	186	1	1.2	0.2	0	0	1	1.02336192	-28.6549598	90	1	1.06667	0.977778;
	187	2	0	0	0	0	1	1.05073012	-20.4956927	63	1	1.07937	0.920635;
	188	1	0	0	0	0	1	1.09874151	-19.0592317	63	1	1.09875	0.920635;
	189	1	16.8	1.8	0	0	1	1.0371871	-24.0071098	63	1	1.07937	0.920635;
	190	2	0	0	0	0	1	0.952733632	-8.25686369	45	1	1	0.888889;
	191	1	15.4	-1.1	0	0	1	1.0202066	-34.576601	90	1	1.06667	0.977778;
	192	1	9.9	-0	0	0	1	1.05772429	-20.6353625	63	1	1.07937	0.920635;
	193	1	0.1	0.7	0	0	1	1.04211753	-29.6099825	225	1	1.08889	1.00444;
	194	2	0.7	-1.6	0	0	1	1.056	-24.8016216	63	1	1.07937	0.920635;
	195	1	0	0	0	0	1	1.04503309	-32.4537954	63	1	1.06362	0.952381;
	196	1	0	0	0	0	1	1.04503451	-32.453838	63	1	1.06362	0.952381;
	197	1	27.5	-0.6	0	15	1	1.0141897	-32.2383792	63	1	1.07937	0.920635;
	198	1	11.1	-0.8	0	0	1	1.02001475	-23.0324062	63	1	1.07937	0.920635;
	199	1	12.6	2.7	0	0	1	1.01797066	-48.3548298	90	1	1.06667	0.977778;
	200	1	0	0	0	0	1	1.08350696	-23.0853669	225	1	1.08889	1;
	201	1	81	25.6	0	0	1	1.03251802	-21.0194029	225	1	1.08889	0.888889;
	202	1	49.8	2	0	0	1	0.989245019	-31.9071679	63	1	1.06349	0.968254;
	203	1	28.6	3.7	0	0	1	1.0538609	-21.2554413	90	1	1.1	0.944444;
	204	1	0	0	0	0	1	1.06275277	-17.6253411	225	1	1.08889	0.968889;
	205	1	0	0	0	0	1	1.0806262	-13.9194558	380	1	1.10526	1;
	206	1	54.4	9.9	0	0	1	1.00099404	-29.1014093	63	1	1.06349	0.968254;
	207	1	33.9	4.5	0	0	1	0.998775687	-14.4329464	63	1	1.06349	0.968254;
	208	1	16.6	-0.8	0	0	1	1.02994045	-31.4280797	90	1	1.07778	0.977778;
	209	1	2.2	1.1	0	0	1	1.01773297	-21.68265	63	1	1.06349	0.968254;
	210	1	41.5	6.3	0	0	1	1.0013341	-18.0120968	63	1	1.06349	0.968254;
	211	1	32.5	14	0	0	1	1.00125831	-17.8741805	63	1	1.06349	0.968254;
	212	1	0	0	0	0	1	1.04607451	-17.8068502	225	1	1.08444	1.00889;
	213	1	0	0	0	0	1	1.04596516	-17.794416	225	1	1.08444	1.00889;
	214	1	43.1	4.5	0	30.4	1	1.0465338	-40.8919359	90	1	1.07778	0.977778;
	215	1	0	0	0	0	1	1.04875609	-36.7546056	225	1	1.08889	1.00444;
	216	1	21.1	-3.5	0	0	1	0.997442738	-21.0660667	63	1	1.06349	0.952381;
	217	1	31.1	2.7	0	0	1	1.00529547	-36.5260899	90	1	1.06667	0.977778;
	218	1	3.3	-0.4	0	0	1	1.03181196	-22.2815778	90	1	1.06667	0.977778;
	219	1	11.1	-4.9	0	0	1	1.04725991	-32.5976965	90	1	1.06667	0.977778;
	220	1	14.8	3.5	0	0	1	1.0230623	-4.3049398	63	1	1.07937	0.952381;
	221	1	13	-6.8	0	0	1	1.03523912	-20.2676773	63	1	1.06349	0.936508;
	222	1	0	0	0	0	1	1.0867342	-16.9374802	225	1	1.08975	0.933333;
	223	1	42.4	2.2	0	0	1	1.02240023	-26.5368814	63	1	1.07937	0.920635;
	224	2	0	0	0	0	1	1.09903379	-16.9465816	150	1	1.1	0.9;
	225	1	76.8	16.6	0	0	1	1.05365564	-17.4917648	225	1	1.08444	1.00889;
	226	1	77.8	71.5	0	0	1	1.05277681	-17.4837281	225	1	1.08444	1.00889;
	227	1	5	-1.9	0	0	1	1.0052347	-65.4018011	63	1	1.06349	0.952381;
	228	1	10.9	-2	0	0	1	1.00112922	-65.9469528	63	1	1.06349	0.952381;
	229	1	12	-5	0	0	1	1.06036426	-21.1242951	63	1	1.07937	0.920635;
	230	1	0	0	0	0	1	1.05409268	-17.7064985	225	1	1.08889	0.977778;
	231	1	7	-1.4	0	0	1	1.0215982	-33.7861561	90	1	1.06667	0.977778;
	232	1	7.2	0.1	0	0	1	1.02185175	-17.6472733	90	1	1.08889	0.933333;
	233	1	0	0	0	0	1	1.05491927	-20.205022	20	1	1.15	0.8;
	234	1	24.7	8.1	0	0	1	1.05491927	-20.205022	90	1	1.08889	0.933333;
	235	1	17.7	3.3	0	0	1	1.06350413	-16.5249285	225	1	1.08889	0.888889;
	236	1	28.6	1	0	0	1	1.03161391	-28.8902296	90	1	1.07778	0.922222;
	237	1	43.7	5.2	0	0	1	1.04264708	-12.5579557	63	1	1.06349	0.936508;
	238	1	25.2	-1.7	0	0	1	1.03097544	-33.3128556	90	1	1.06667	0.977778;
	239	1	53.9	4.3	0	0	1	1.02541861	-66.5557203	63	1	1.06349	0.952381;
	240	1	51.1	9.5	0	0	1	1.03816745	-26.0319904	63	1	1.07937	0.920635;
	241	1	56.7	9.4	0	0	1	1.00826142	-27.6874357	90	1	1.07778	0.922222;
	242	1	56.2	8.6	0	0	1	0.991669463	-28.3325079	63	1	1.06349	0.968254;
	243	1	26.7	-2.3	0	0	1	1.01698325	-28.6156132	63	1	1.07937	0.920635;
	244	1	58	3.7	0	0	1	1.05013828	-18.1098029	90	1	1.07778	0.922222;
	245	1	13.7	-2.2	0	0	1	1.02293059	-30.1831437	63	1	1.07937	0.920635;
	246	2	13.7	7.5	0	0	1	1.02438373	-5.95154532	63	1	1.06349	0.936508;
	247	1	0	0	0	0	1	1.05496608	-4.09599492	225	1	1.08889	0.933333;
	248	1	33.4	13.1	0	0	1	1.05387908	-30.1172396	225	1	1.08889	1.00444;
	249	1	26.1	0.9	0	0	1	1.03362506	-28.312209	63	1	1.07937	0.920635;
	250	1	27.4	-9.4	0	0	1	1.00190532	-26.4795076	63	1	1.07937	0.952381;
	251	1	10.6	3.5	0	0	1	1.02677861	-40.09832	90	1	1.06667	0.977778;
	252	1	9.6	-1.8	0	0	1	1.02300372	-29.1983549	90	1	1.06667	0.977778;
	253	1	54.1	5.3	0	0	1	1.02223063	-24.1142827	63	1	1.07937	0.952381;
	254	1	20	1.9	0	0	1	1.02424839	-23.8584321	63	1	1.07937	0.952381;
	255	1	9.5	-0.2	0	0	1	1.02114981	-22.7197854	63	1	1.06349	0.936508;
	256	2	1.8	0	0	0	1	1.047	-22.4741827	63	1	1.07937	0.920635;
	257	1	0	0	0	0	1	1.08045933	-23.1875576	225	1	1.08889	1;
	258	2	-0	0	0	0	1	1.078	-13.9251168	90	1	1.07778	0.922222;
	259	1	33	-2.2	0	0	1	1.03119983	-21.9858605	63	1	1.07937	0.952381;
	260	1	0	0	0	0	1	1.06065354	-19.708465	225	1	1.08889	0.986667;
	261	2	0	0	0	0	1	1.04201919	-28.9291466	63	1	1.07937	0.920635;
	262	1	0	0	0	80	1	1.05231276	-17.8756688	225	1	1.08889	0.888889;
	263	1	0	0	0	0	1	1.03792887	-19.8739329	225	1	1.08889	0.888889;
	264	1	0	0	0	0	1	1.05275573	-13.9006877	380	1	1.10526	1.01316;
	265	1	0	0	0	0	1	0.984196215	-34.2243338	63	1	1.04762	0.952381;
	266	1	32.5	7.6	0	0	1	1.04926202	-30.260429	225	1	1.08889	1.00444;
	267	1	66.3	12.7	0	0	1	1.03429811	-31.8888997	225	1	1.08889	1.00444;
	268	1	12.2	10.9	0	0	1	0.997039759	-20.2965781	63	1	1.07937	0.920635;
	269	1	23.2	1.1	0	0	1	1.00603618	-31.6948621	63	1	1.07937	0.920635;
	270	1	0	0	0	0	1	1.04272846	-12.441075	225	1	1.08889	0.977778;
	271	1	0	0	0	0	1	1.04288718	-12.4416901	225	1	1.08889	0.977778;
	272	1	45.8	4.3	0	0	1	1.02142217	-17.9538619	63	1	1.06349	0.968254;
	273	1	28.5	3.5	0	0	1	1.03965072	-13.3076951	225	1	1.08444	1.00889;
	274	1	54.5	9.1	0	0	1	1.05673732	-26.4563869	90	1	1.1	0.944444;
	275	1	0	0	0	0	1	1.06980247	-31.4950138	225	1	1.08444	1.00444;
	276	1	0	0	0	0	1	1.08670872	-25.474387	380	1	1.10263	1.04211;
	277	1	3.7	2.3	0	0	1	1.03945776	-34.5004059	90	1	1.06667	0.977778;
	278	1	1.5	4.6	0	0	1	1.06948192	-31.5543005	225	1	1.08444	1.00444;
	279	1	11	-2.1	0	0	1	1.01875735	-23.8593281	63	1	1.06349	0.936508;
	280	1	44	14.3	0	0	1	1.03135057	-41.1258419	90	1	1.07778	0.977778;
	281	1	12.8	0.9	0	0	1	1.00611829	-19.837084	63	1	1.07937	0.952381;
	282	2	0	0	0	0	1	1.02438424	-5.95155687	63	1	1.06349	0.936508;
	283	1	12.1	-0.2	0	0	1	1.0221035	-42.1573041	90	1	1.06667	0.977778;
	284	1	16.8	4.6	0	0	1	1.01582131	-3.21298467	63	1	1.07937	0.952381;
	285	1	-1.7	4.6	0	0	1	1.05612353	-29.6745301	225	1	1.08889	1.00444;
	286	1	32.2	20.5	0	0	1	1.05593847	-29.6900537	225	1	1.08889	1.00444;
	287	1	35.7	-2.3	0	0	1	1.03197787	-30.3864275	90	1	1.06667	0.977778;
	288	1	36.8	-2.8	0	0	1	1.03719434	-35.822697	90	1	1.06667	0.977778;
	289	1	43.6	9.7	0	0	1	1.06976393	-4.09185677	225	1	1.08889	0.888889;
	290	1	7.3	3.7	0	0	1	1.05961349	-19.0596612	90	1	1.11111	0.955556;
	291	1	15.8	0.3	0	0	1	1.02249416	-26.2050015	63	1	1.07937	0.920635;
	292	1	1	0.5	0	0	1	1.02874602	-14.4198254	63	1	1.06349	0.936508;
	293	1	45.4	2.3	0	0	1	1.02880211	-14.4165778	63	1	1.06349	0.936508;
	294	1	0	-0.9	0	0	1	1.02778605	-15.9753956	63	1	1.07937	0.952381;
	295	1	23.4	4.5	0	0	1	1.04223266	-21.8728447	225	1	1.08889	0.888889;
	296	1	6.9	0.3	0	0	1	1.00683217	-21.9546149	63	1	1.07937	0.952381;
	297	1	2	-0.5	0	0	1	0.998363677	-22.1135004	63	1	1.06349	0.936508;
	298	1	13.9	-0	0	0	1	0.996721508	-9.3676999	63	1	1.06349	0.936508;
	299	1	0	0.1	0	0	1	1.05742607	-19.1165859	90	1	1.11111	0.955556;
	300	1	53.5	16.6	0	0	1	1.06193559	-16.3571474	225	1	1.08889	0.888889;
	301	1	3	0.3	0	0	1	0.99735055	-15.0944621	63	1	1.06349	0.968254;
	302	1	16.3	3.5	0	0	1	1.0288723	-13.604808	63	1	1.06349	0.936508;
	303	1	42.3	12	0	0	1	0.985646881	-35.0226066	63	1	1.07937	0.920635;
	304	1	36.7	-0.5	0	0	1	0.994904793	-26.0340018	63	1	1.06349	0.968254;
	305	2	0	0	0	0	1	1.04954413	-18.1378443	63	1	1.06349	0.936508;
	306	1	14.5	-1.1	0	0	1	1.00617019	-20.1336826	63	1	1.07937	0.952381;
	307	1	21.4	-2.4	0	0	1	1.00032045	-49.2001392	90	1	1.06667	0.977778;
	308	1	0.6	0.2	0	0	1	1.0429675	-26.8439982	63	1	1.07937	0.920635;
	309	1	7	2.5	0	0	1	1.02998592	-31.4757457	63	1	1.06349	0.968254;
	310	1	13	4.5	0	0	1	1.03013716	-31.5056649	63	1	1.06349	0.968254;
	311	1	1.3	-0	0	0	1	0.993342113	-36.1302774	90	1	1.06667	0.977778;
	312	1	2	-2.6	0	0	1	1.01013442	-14.8389346	90	1	1.07778	0.922222;
	313	1	32	2.4	0	0	1	1.03570649	-25.1092157	63	1	1.07937	0.920635;
	314	1	0	0	0	0	1	1.06771955	-21.2291999	225	1	1.08889	1;
	315	1	21.5	-0.1	0	0	1	1.06148936	-33.2656127	90	1	1.07778	0.977778;
	316	1	35.3	2.4	0	0	1	1.02357894	-28.4678217	63	1	1.07937	0.920635;
	317	2	0	0	0	0	1	1.05741266	-21.3510698	63	1	1.07937	0.920635;
	318	1	13.7	4.8	0	0	1	1.00347809	-33.2557094	63	1	1.04762	0.952381;
	319	2	0	0	0	0	1	1.03837136	-27.3599566	63	1	1.07937	0.920635;
	320	1	36.6	2.7	0	0	1	1.04390395	-24.2902008	90	1	1.1	0.944444;
	321	1	0	0	0	0	1	1.04624248	-25.0120221	63	1	1.07937	0.920635;
	322	1	0	0	0	0	1	1.03532595	-14.8103136	225	1	1.08889	1;
	323	1	0	0	0	0	1	1.07367961	-14.7633136	380	1	1.10526	1.05232;
	324	1	28.5	5.3	0	0	1	1.02359077	-10.0904293	63	1	1.06349	0.936508;
	325	2	18	9.6	0	0	1	1.02932049	-15.4580419	63	1	1.06349	0.936508;
	326	1	11.7	19.8	0	0	1	1.03782882	-22.023292	63	1	1.07937	0.920635;
	327	1	0	0	0	0	1	1.04466606	-18.6629085	225	1	1.08889	1;
	328	1	39.4	2.5	0	0	1	1.01931429	-24.1279546	63	1	1.07937	0.920635;
	329	1	74.3	5.1	0	0	1	1.05207993	-24.9372521	90	1	1.1	0.944444;
	330	1	84.5	7.7	0	0	1	1.05178828	-26.0683404	63	1	1.07937	0.920635;
	331	1	0	0	0	0	1	1.06764491	-21.6264432	225	1	1.08889	1;
	332	2	9.2	-0.9	0	0	1	1.03569194	-35.2397654	63	1	1.06349	0.968254;
	333	2	0	0	0	0	1	1.04743345	-27.5604866	150	1	1.08	0.966667;
	334	1	7.4	-2.8	0	0	1	1.03844269	-62.2580493	63	1	1.06349	0.952381;
	335	1	3	-3	0	0	1	1.0290222	-20.5999879	63	1	1.06349	0.936508;
	336	2	0.7	0	0	0	1	1.023	-23.1298167	63	1	1.07937	0.920635;
	337	1	13.6	-1.2	0	0	1	1.04687756	-27.7517051	63	1	1.07937	0.920635;
	338	2	0	0	0	0	1	1.06489248	-23.2622935	63	1	1.07937	0.920635;
	339	1	17.8	1.1	0	0	1	1.02958526	-26.4380872	63	1	1.07937	0.920635;
	340	1	25.2	1	0	0	1	1.04282867	-31.8720235	90	1	1.06667	0.977778;
	341	1	7.7	-10.7	0	0	1	1.06978733	-25.1264982	63	1	1.07937	0.920635;
	342	1	13.8	-1.9	0	0	1	1.01623613	-17.6926867	63	1	1.07937	0.952381;
	343	1	0	0	0	0	1	1.02366683	-14.7127859	225	1	1.08889	0.986667;
	344	1	11.5	-3.5	0	0	1	1.00516119	-16.3003436	63	1	1.06349	0.968254;
	345	1	23.4	-5.5	0	0	1	1.02445108	-31.7622939	90	1	1.07778	0.977778;
	346	1	13.1	-0.3	0	0	1	1.06283842	-8.52614477	225	1	1.08444	1.00889;
	347	1	-0.7	0.1	0	0	1	1.03475263	-31.8598863	63	1	1.06349	0.968254;
	348	1	53.9	6.8	0	0	1	1.04470359	-28.2647516	90	1	1.1	0.944444;
	349	1	0	0	0	0	1	1.09052675	-17.4744051	380	1	1.10526	1.04211;
	350	1	0	0	0	0	1	1.09028231	-17.4688152	380	1	1.10526	1.04211;
	351	1	36	2.6	0	0	1	1.07337893	-19.7259122	225	1	1.08889	1;
	352	1	5.8	2	0	0	1	1.05499185	-32.6192983	225	1	1.08889	1.00444;
	353	1	34	-10.2	0	0	1	0.999856823	-35.3858018	63	1	1.04762	0.952381;
	354	1	2.5	1.2	0	0	1	1.03014013	-19.3843948	63	1	1.07937	0.920635;
	355	1	3	-1.9	0	0	1	1.03765513	-13.7872981	63	1	1.07937	0.920635;
	356	1	6	2	0	0	1	1.01766204	-25.5852826	63	1	1.07937	0.920635;
	357	1	14.7	2.4	0	0	1	0.994049939	-18.329441	63	1	1.07937	0.952381;
	358	1	23.9	10.1	0	0	1	1.01809738	-25.5562903	63	1	1.07937	0.920635;
	359	1	35.3	3	0	0	1	1.01010555	-27.1188021	63	1	1.06349	0.968254;
	360	1	54.9	5.6	0	19	1	1.04521436	-25.1420489	63	1	1.07937	0.920635;
	361	1	0	0	0	0	1	1.07473941	-21.1171598	150	1	1.1	0.9;
	362	1	0	0	0	0	1	1.07361906	-19.8947627	225	1	1.08889	1;
	363	1	10	4	0	0	1	1.05981747	-23.8357066	90	1	1.08889	0.933333;
	364	2	-3	0	0	0	1	1.035	-31.7629971	225	1	1.08889	1.00444;
	365	1	-0.1	-0.4	0	0	1	1.04032727	-10.5332281	63	1	1.06349	0.936508;
	366	1	0	0	0	0	1	1.05471199	-6.83475861	225	1	1.08889	0.933333;
	367	1	0	0	0	0	1	1.07570136	-5.2367027	380	1	1.10526	1.03947;
	368	1	0	0	0	0	1	1.07148005	-6.19979631	380	1	1.10526	1.03947;
	369	1	0	0	0	0	1	1.06735269	-34.5809229	225	1	1.08889	1.00444;
	370	1	60	14.2	0	0	1	1.01762064	-32.5873069	225	1	1.08889	1.00444;
	371	1	12	2.6	0	0	1	1.01112711	-4.30687438	63	1	1.07937	0.952381;
	372	1	0	0	0	0	1	1.04405703	-6.12562294	225	1	1.08889	0.986667;
	373	1	24.9	7.3	0	0	1	1.06718222	-34.5955974	225	1	1.08889	1.00444;
	374	1	25.7	3.1	0	0	1	0.989951885	-64.1815432	63	1	1.06349	0.952381;
	375	1	17	0	0	0	1	1.012995	-42.9208228	90	1	1.06667	0.977778;
	376	1	54.3	-0.4	0	0	1	1.02323948	-49.4819957	63	1	1.06349	0.952381;
	377	1	6	2.3	0	0	1	0.999114224	-16.2548027	63	1	1.07937	0.952381;
	378	1	27.5	-0.1	0	0	1	1.03746849	-19.5628609	63	1	1.06349	0.936508;
	379	1	0	0	0	0	1	1.04763688	-14.7520068	225	1	1.08889	0.933333;
	380	1	0	0	0	0	1	1.07099959	-11.8935007	380	1	1.10526	1.03947;
	381	1	52.7	7.3	0	0	1	1.01595946	-39.6836178	90	1	1.07778	0.977778;
	382	1	17.3	0.6	0	0	1	1.01403378	-9.95931172	63	1	1.07937	0.952381;
	383	1	43.9	15.4	0	0	1	1.02159913	-19.8570607	63	1	1.07937	0.920635;
	384	1	20.1	3.9	0	0	1	1.00036748	-31.6185816	63	1	1.07937	0.920635;
	385	1	18.9	10.3	0	0	1	1.02049764	-8.7149358	63	1	1.07937	0.920635;
	386	1	45.9	9	0	0	1	1.07513612	-19.6813594	225	1	1.08889	1;
	387	1	5.4	-2.5	0	0	1	1.05914311	-17.0534302	90	1	1.07778	0.922222;
	388	1	44.8	0.3	0	0	1	1.04421346	-26.4338094	90	1	1.1	0.944444;
	389	1	29	1.6	0	0	1	1.03633892	-17.1531213	63	1	1.06349	0.936508;
	390	1	0.8	0.3	0	0	1	1.02162984	-17.9041086	63	1	1.06349	0.968254;
	391	1	24.5	-4.9	0	0	1	1.03055106	-24.4260036	63	1	1.07937	0.920635;
	392	1	29.6	1.6	0	0	1	0.998611736	-29.8982684	63	1	1.06349	0.968254;
	393	1	6	0.1	0	0	1	1.02621558	-19.821917	63	1	1.07937	0.952381;
	394	1	6	2	0	0	1	1.03274712	-25.1172486	63	1	1.07937	0.920635;
	395	1	44.1	4.4	0	0	1	1.03284961	-25.1110221	63	1	1.07937	0.920635;
	396	1	0	0	0	0	1	1.04268436	-8.97484724	63	1	1.07937	0.952381;
	397	1	13	-2.4	0	0	1	1.03212539	-28.3078907	63	1	1.07937	0.920635;
	398	1	6.7	2.2	0	0	1	1.02275202	-42.0414943	90	1	1.06667	0.977778;
	399	1	0.8	2.2	0	0	1	1.07475521	-20.1567115	63	1	1.07937	0.920635;
	400	1	20.2	-1.8	0	0	1	1.03835387	-26.4571084	63	1	1.07937	0.920635;
	401	1	5	0.1	0	0	1	1.03411306	-20.0652099	63	1	1.06349	0.936508;
	402	1	22.4	-1.9	0	0	1	1.01504217	-30.5607369	90	1	1.07778	0.922222;
	403	1	24.2	5.2	0	0	1	1.03276275	-12.9955772	63	1	1.06349	0.936508;
	404	1	32	10.5	0	0	1	1.04141935	-15.9280618	63	1	1.06349	0.936508;
	405	1	6	4.1	0	0	1	1.01627893	-17.9671622	63	1	1.06349	0.936508;
	406	1	60.7	3.4	0	0	1	1.01746923	-31.3647445	90	1	1.06667	0.977778;
	407	1	1.5	0.2	0	0	1	1.02819101	-37.1751299	90	1	1.06667	0.977778;
	408	1	13.8	-4.2	0	0	1	1.05328366	-33.3389658	63	1	1.07937	0.920635;
	409	2	0	0	0	0	1	1.02988277	-28.0574884	63	1	1.06349	0.968254;
	410	1	21	1.1	0	0	1	1.02246982	-45.2094833	90	1	1.06667	0.977778;
	411	1	17.8	-3.4	0	0	1	1.02447565	-35.5844983	90	1	1.06667	0.977778;
	412	1	24.7	-11.1	0	0	1	1.01311619	-11.8511192	63	1	1.07937	0.952381;
	413	1	29	-1.7	0	0	1	1.03043668	-62.6226439	63	1	1.06349	0.952381;
	414	1	-0.4	0.1	0	0	1	1.00302604	-19.5820575	63	1	1.06349	0.936508;
	415	1	10.5	-1	0	0	1	1.01885731	-24.6126612	63	1	1.07937	0.952381;
	416	1	67.6	14.6	0	0	1	1.04459244	-33.7840242	225	1	1.08889	1.00444;
	417	1	18.2	5.4	0	0	1	1.03154698	-31.7371031	63	1	1.07937	0.920635;
	418	1	10	3.6	0	0	1	1.00923689	-31.912148	63	1	1.04762	0.952381;
	419	1	29.8	7.5	0	0	1	1.04549305	-32.6480356	63	1	1.07937	0.920635;
	420	1	-4.2	-1.3	0	0	1	1.0491312	-32.2111734	63	1	1.07937	0.920635;
	421	1	0	0	0	0	1	1.01511938	-37.5179615	63	1	1.06349	0.968254;
	422	1	0	0	0	0	1	1.06178003	-20.701303	63	1	1.07937	0.920635;
	423	1	0	0	0	0	1	1.08389686	-17.8182112	225	1	1.08889	1;
	424	1	0	0	0	0	1	1.03179574	-6.6171268	63	1	1.07937	0.952381;
	425	1	0	0	0	0	1	1.06490896	-3.0715731	225	1	1.08889	0.986667;
	426	1	0	0	0	0	1	1.00798869	-33.2212633	63	1	1.04762	0.952381;
	427	1	0.3	-0.2	0	0	1	1.02896084	-10.8177879	63	1	1.06349	0.936508;
	428	1	4	-1	0	0	1	1.02960742	-54.6059877	63	1	1.06349	0.952381;
	429	1	58.6	6.9	0	0	1	1.02652902	-21.4405309	63	1	1.06349	0.968254;
	430	1	117.3	33.8	0	0	1	1.05972415	-31.1529398	225	1	1.08889	1.00444;
	431	1	13	1.1	0	0	1	1.04880028	-23.5050028	63	1	1.07937	0.920635;
	432	1	26	-2.4	0	0	1	1.02493531	-40.9535655	63	1	1.07937	0.920635;
	433	1	3.5	3.3	0	0	1	0.991798265	-33.9300579	63	1	1.04762	0.952381;
	434	1	14	-4.8	0	0	1	1.01464219	-15.4713893	63	1	1.06349	0.936508;
	435	1	37.4	3.5	0	0	1	1.02952881	-30.9967301	90	1	1.07778	0.922222;
	436	1	26.9	-2.8	0	0	1	1.00340155	-17.5111912	63	1	1.06349	0.968254;
	437	1	1	-2	0	0	1	1.03686826	-19.6147195	63	1	1.09524	0.904762;
	438	1	12.9	-2.1	0	0	1	0.990831036	-34.629493	63	1	1.04762	0.952381;
	439	1	13.5	0.6	0	0	1	1.02700522	-15.4027494	63	1	1.07937	0.952381;
	440	2	0	0	0	0	1	1.01992597	-30.7361292	63	1	1.07937	0.920635;
	441	1	2.4	2	0	0	1	1.02446083	-14.6384328	63	1	1.06349	0.936508;
	442	1	27.5	3.5	0	0	1	1.02758382	-2.22611702	63	1	1.07937	0.952381;
	443	1	12.6	3.1	0	0	1	1.05682248	-25.9921955	90	1	1.11111	0.955556;
	444	1	0	0	0	0	1	1.06114405	-26.8184923	90	1	1.11111	0.955556;
	445	1	25.8	7.1	0	0	1	1.07162653	-27.0509597	90	1	1.11111	0.955556;
	446	1	0	0	0	0	1	1.02344927	-21.8097729	225	1	1.08889	0.924444;
	447	2	1	1.9	0	0	1	0.997	-11.375066	63	1	1.06349	0.968254;
	448	1	0	0	0	0	1	1.02157891	-2.8710785	63	1	1.07937	0.952381;
	449	1	0	0	0	0	1	1.08515918	0.900148488	225	1	1.09538	0.986667;
	450	1	0	0	0	0	1	1.09042916	2.08430467	380	1	1.10526	1.03947;
	451	1	1	-0.3	0	0	1	0.999777118	-25.3837768	63	1	1.07937	0.920635;
	452	1	0	0	0	50	1	1.06341659	-56.5515751	63	1	1.0658	0.952381;
	453	1	0	0	0	0	1	1.05912573	-51.2950313	225	1	1.08444	1.00444;
	454	1	26.5	3.4	0	0	1	1.0390942	-26.1094822	63	1	1.07937	0.920635;
	455	1	10.6	1.2	0	0	1	1.04325375	-25.7641747	90	1	1.1	0.944444;